<routes>
        <vType id="typeWE" accel="0.8" decel="4.5" sigma="0.5" length="2.85" minGap="1" maxSpeed="30" guiShape="passenger"/>
        <vType id="typeNS" accel="0.8" decel="5" sigma="0.5" length="2.7" minGap="1" maxSpeed="30" guiShape="emergency"/>
        <vType id="typeSN1" accel="0.8" decel="4.5" sigma="0.5" length="2.7" minGap="1" maxSpeed="30" guiShape="bus"/>
        <vType id="typeSE" accel="0.8" decel="4.5" sigma="0.5" length="2.7" minGap="1" maxSpeed="30" guiShape="bus"/>
        <vType id="typeNW" accel="0.8" decel="4.5" sigma="0.5" length="2.7" minGap="1" maxSpeed="30" guiShape="emergency"/>
        
        <route id="right" edges="51o 1i 2o 52i" />
        <route id="left" edges="52o 2i 1o 51i" />
        <route id="down" edges="54o 4i 3o 53i" />
        <route id="up" edges="53o 3i 4o 54i" />
        <route id="upleft" edges="54o 4i 1o 51i" />
        <route id="southright" edges="53o 3i 2o 52i" />
    <vehicle id="right_0" type="typeWE" route="right" depart="0" />
    <vehicle id="right_1" type="typeWE" route="right" depart="1" />
    <vehicle id="southright_2" type="typeSE" route="southright" depart="3" />
    <vehicle id="upleft_3" type="typeNW" route="upleft" depart="3" />
    <vehicle id="right_4" type="typeWE" route="right" depart="5" />
    <vehicle id="upleft_5" type="typeNW" route="upleft" depart="6" />
    <vehicle id="down_6" type="typeNS" route="down" depart="7" color="1,0,0"/>
    <vehicle id="upleft_7" type="typeNW" route="upleft" depart="8" />
    <vehicle id="left_8" type="typeWE" route="left" depart="9" />
    <vehicle id="upleft_9" type="typeNW" route="upleft" depart="9" />
    <vehicle id="left_10" type="typeWE" route="left" depart="12" />
    <vehicle id="upleft_11" type="typeNW" route="upleft" depart="12" />
    <vehicle id="southright_12" type="typeSE" route="southright" depart="13" />
    <vehicle id="down_13" type="typeNS" route="down" depart="13" color="1,0,0"/>
    <vehicle id="left_14" type="typeWE" route="left" depart="15" />
    <vehicle id="southright_15" type="typeSE" route="southright" depart="15" />
    <vehicle id="upleft_16" type="typeNW" route="upleft" depart="15" />
    <vehicle id="up_17" type="typeSN1" route="up" depart="15"/>
    <vehicle id="southright_18" type="typeSE" route="southright" depart="16" />
    <vehicle id="southright_19" type="typeSE" route="southright" depart="17" />
    <vehicle id="down_20" type="typeNS" route="down" depart="18" color="1,0,0"/>
    <vehicle id="right_21" type="typeWE" route="right" depart="20" />
    <vehicle id="down_22" type="typeNS" route="down" depart="20" color="1,0,0"/>
    <vehicle id="left_23" type="typeWE" route="left" depart="22" />
    <vehicle id="down_24" type="typeNS" route="down" depart="22" color="1,0,0"/>
    <vehicle id="up_25" type="typeSN1" route="up" depart="22"/>
    <vehicle id="southright_26" type="typeSE" route="southright" depart="23" />
    <vehicle id="down_27" type="typeNS" route="down" depart="24" color="1,0,0"/>
    <vehicle id="upleft_28" type="typeNW" route="upleft" depart="25" />
    <vehicle id="right_29" type="typeWE" route="right" depart="26" />
    <vehicle id="southright_30" type="typeSE" route="southright" depart="27" />
</routes>
