<?xml version="1.0" encoding="UTF-8"?>

<!-- generated on Fri Nov 13 13:57:18 2020 by Eclipse SUMO duarouter Version 1.6.0
<configuration xmlns:xsi="http://www.w3.org/2001/XMLSchema-instance" xsi:noNamespaceSchemaLocation="http://sumo.dlr.de/xsd/duarouterConfiguration.xsd">

    <input>
        <net-file value="configs/example/traffic.net.xml"/>
        <route-files value="configs/example/trips.trips.xml"/>
    </input>

    <output>
        <output-file value="configs/example/traffic.rou.xml"/>
        <alternatives-output value="configs/example/traffic.rou.alt.xml"/>
    </output>

    <time>
        <begin value="0"/>
        <end value="3600"/>
    </time>

    <report>
        <no-warnings value="true"/>
        <ignore-errors value="true"/>
        <no-step-log value="true"/>
    </report>

</configuration>
-->

<routes xmlns:xsi="http://www.w3.org/2001/XMLSchema-instance" xsi:noNamespaceSchemaLocation="http://sumo.dlr.de/xsd/routes_file.xsd">
    <vehicle id="0" depart="0.00">
        <route edges="54o 4i 1o 51i 51o 1i"/>
    </vehicle>
    <vehicle id="1" depart="12.00">
        <route edges="3i 2o 52i 52o 2i 1o 51i 51o 1i"/>
    </vehicle>
    <vehicle id="2" depart="24.00">
        <route edges="1i 2o 52i 52o 2i"/>
    </vehicle>
    <vehicle id="3" depart="36.00">
        <route edges="54o 4i 3o 53i 53o 3i 4o"/>
    </vehicle>
    <vehicle id="6" depart="72.00">
        <route edges="2i 1o 51i 51o 1i 2o 52i"/>
    </vehicle>
    <vehicle id="7" depart="84.00">
        <route edges="3i 4o 54i"/>
    </vehicle>
    <vehicle id="8" depart="96.00">
        <route edges="1i 2o 52i 52o 2i 1o"/>
    </vehicle>
    <vehicle id="9" depart="108.00">
        <route edges="53o 3i 2o 52i"/>
    </vehicle>
    <vehicle id="10" depart="120.00">
        <route edges="4i 1o 51i 51o 1i 2o"/>
    </vehicle>
    <vehicle id="11" depart="132.00">
        <route edges="53o 3i 2o 52i 52o 2i 1o"/>
    </vehicle>
    <vehicle id="12" depart="144.00">
        <route edges="4i 1o 51i 51o 1i 2o 52i 52o 2i"/>
    </vehicle>
    <vehicle id="13" depart="156.00">
        <route edges="52o 2i 1o 51i 51o 1i 2o"/>
    </vehicle>
    <vehicle id="14" depart="168.00">
        <route edges="1i 2o 52i"/>
    </vehicle>
    <vehicle id="15" depart="180.00">
        <route edges="54o 54i"/>
    </vehicle>
    <vehicle id="16" depart="192.00">
        <route edges="4o 54i 54o 4i 1o 51i 51o 1i"/>
    </vehicle>
    <vehicle id="17" depart="204.00">
        <route edges="53o 3i 2o"/>
    </vehicle>
    <vehicle id="18" depart="216.00">
        <route edges="3o 53i 53o 3i 4o 54i 54o 4i"/>
    </vehicle>
    <vehicle id="19" depart="228.00">
        <route edges="54o 4i 1o 51i 51o 1i 2o"/>
    </vehicle>
    <vehicle id="20" depart="240.00">
        <route edges="3i 4o 54i 54o 4i 3o"/>
    </vehicle>
    <vehicle id="21" depart="252.00">
        <route edges="1i 2o 52i 52o 2i"/>
    </vehicle>
    <vehicle id="23" depart="276.00">
        <route edges="54o 4i 3o 53i 53o 3i 4o"/>
    </vehicle>
    <vehicle id="24" depart="288.00">
        <route edges="4o 54i 54o 4i 1o 51i 51o 1i 2o"/>
    </vehicle>
    <vehicle id="25" depart="300.00">
        <route edges="1o 1i"/>
    </vehicle>
    <vehicle id="27" depart="324.00">
        <route edges="53o 3i 4o 54i"/>
    </vehicle>
    <vehicle id="28" depart="336.00">
        <route edges="1i 2o 52i 52o 2i 1o"/>
    </vehicle>
    <vehicle id="29" depart="348.00">
        <route edges="1i"/>
    </vehicle>
    <vehicle id="30" depart="360.00">
        <route edges="54o 4i"/>
    </vehicle>
    <vehicle id="31" depart="372.00">
        <route edges="3o 53i 53o 3i 4o 54i 54o 4i"/>
    </vehicle>
    <vehicle id="33" depart="396.00">
        <route edges="54o 54i"/>
    </vehicle>
    <vehicle id="34" depart="408.00">
        <route edges="4o 54i 54o 4i 3o 53i 53o 3i"/>
    </vehicle>
    <vehicle id="35" depart="420.00">
        <route edges="4i 3o 53i 53o 3i 4o 54i"/>
    </vehicle>
    <vehicle id="37" depart="444.00">
        <route edges="3o 53i 53o 3i 2o 52i 52o 2i 1o 51i 51o 1i"/>
    </vehicle>
    <vehicle id="38" depart="456.00">
        <route edges="1i 2o 52i 52o 2i 1o"/>
    </vehicle>
    <vehicle id="40" depart="480.00">
        <route edges="4o 54i 54o 4i 3o 53i 53o 3i"/>
    </vehicle>
    <vehicle id="41" depart="492.00">
        <route edges="3o"/>
    </vehicle>
    <vehicle id="43" depart="516.00">
        <route edges="1o 51i 51o 1i 2o"/>
    </vehicle>
    <vehicle id="44" depart="528.00">
        <route edges="1i 2o 52i 52o 2i 1o"/>
    </vehicle>
    <vehicle id="46" depart="552.00">
        <route edges="4i"/>
    </vehicle>
    <vehicle id="47" depart="564.00">
        <route edges="3i 2o 52i 52o 2i 1o 51i 51o 1i"/>
    </vehicle>
    <vehicle id="48" depart="576.00">
        <route edges="2o 52i 52o 2i 1o 51i 51o 1i"/>
    </vehicle>
    <vehicle id="50" depart="600.00">
        <route edges="4o 54i 54o 4i 1o"/>
    </vehicle>
    <vehicle id="51" depart="612.00">
        <route edges="1i"/>
    </vehicle>
    <vehicle id="52" depart="624.00">
        <route edges="4o"/>
    </vehicle>
    <vehicle id="53" depart="636.00">
        <route edges="54o 4i 1o 51i 51o 1i 2o"/>
    </vehicle>
    <vehicle id="56" depart="672.00">
        <route edges="4o 4i"/>
    </vehicle>
    <vehicle id="57" depart="684.00">
        <route edges="3i 4o 54i 54o 4i 3o"/>
    </vehicle>
    <vehicle id="58" depart="696.00">
        <route edges="1i 2o 52i 52o 2i"/>
    </vehicle>
    <vehicle id="59" depart="708.00">
        <route edges="4o 54i 54o 4i 1o"/>
    </vehicle>
    <vehicle id="60" depart="720.00">
        <route edges="1i"/>
    </vehicle>
    <vehicle id="61" depart="732.00">
        <route edges="3i 2o 52i 52o 2i 1o"/>
    </vehicle>
    <vehicle id="63" depart="756.00">
        <route edges="1i"/>
    </vehicle>
    <vehicle id="64" depart="768.00">
        <route edges="3i 4o 54i"/>
    </vehicle>
    <vehicle id="65" depart="780.00">
        <route edges="3o 53i 53o 3i 2o"/>
    </vehicle>
    <vehicle id="66" depart="792.00">
        <route edges="4o 54i 54o 4i 1o 51i 51o 1i 2o"/>
    </vehicle>
    <vehicle id="67" depart="804.00">
        <route edges="1i"/>
    </vehicle>
    <vehicle id="68" depart="816.00">
        <route edges="4o 54i 54o 4i 1o 51i 51o 1i 2o 52i 52o 2i"/>
    </vehicle>
    <vehicle id="70" depart="840.00">
        <route edges="3i 2o 52i 52o 2i 1o 51i 51o 1i"/>
    </vehicle>
    <vehicle id="72" depart="864.00">
        <route edges="1i"/>
    </vehicle>
    <vehicle id="73" depart="876.00">
        <route edges="1i"/>
    </vehicle>
    <vehicle id="75" depart="900.00">
        <route edges="54o 4i 1o 51i 51o 1i 2o"/>
    </vehicle>
    <vehicle id="76" depart="912.00">
        <route edges="1o 1i"/>
    </vehicle>
    <vehicle id="77" depart="924.00">
        <route edges="3i 2o 52i 52o 2i 1o 51i 51o 1i"/>
    </vehicle>
    <vehicle id="80" depart="960.00">
        <route edges="3i 2o 52i 52o 2i 1o 51i 51o 1i"/>
    </vehicle>
    <vehicle id="81" depart="972.00">
        <route edges="4i 3o 53i 53o 3i"/>
    </vehicle>
    <vehicle id="82" depart="984.00">
        <route edges="54o 4i 1o 51i 51o 1i"/>
    </vehicle>
    <vehicle id="84" depart="1008.00">
        <route edges="3o 53i 53o 3i 4o 54i 54o 4i"/>
    </vehicle>
    <vehicle id="85" depart="1020.00">
        <route edges="4o 54i 54o 4i 1o 51i 51o 1i 2o"/>
    </vehicle>
    <vehicle id="86" depart="1032.00">
        <route edges="1o 1i"/>
    </vehicle>
    <vehicle id="87" depart="1044.00">
        <route edges="3o 53i 53o 3i 2o 52i 52o 2i 1o 51i 51o 1i"/>
    </vehicle>
    <vehicle id="89" depart="1068.00">
        <route edges="54o 4i 1o 51i 51o 1i"/>
    </vehicle>
    <vehicle id="92" depart="1104.00">
        <route edges="1o"/>
    </vehicle>
    <vehicle id="94" depart="1128.00">
        <route edges="3i 4o 54i 54o 4i 3o"/>
    </vehicle>
    <vehicle id="95" depart="1140.00">
        <route edges="2i 1o 51i 51o 1i 2o"/>
    </vehicle>
    <vehicle id="98" depart="1176.00">
        <route edges="54o 4i 3o 53i 53o 3i"/>
    </vehicle>
    <vehicle id="99" depart="1188.00">
        <route edges="4i 1o 51i 51o 1i 2o 52i 52o 2i"/>
    </vehicle>
    <vehicle id="100" depart="1200.00">
        <route edges="3i 2o 52i 52o 2i"/>
    </vehicle>
    <vehicle id="101" depart="1212.00">
        <route edges="2o"/>
    </vehicle>
    <vehicle id="102" depart="1224.00">
        <route edges="4o 54i 54o 4i 1o"/>
    </vehicle>
    <vehicle id="103" depart="1236.00">
        <route edges="1o 51i 51o 1i 2o 52i 52o 2i"/>
    </vehicle>
    <vehicle id="104" depart="1248.00">
        <route edges="1o"/>
    </vehicle>
    <vehicle id="105" depart="1260.00">
        <route edges="4i 1o 51i 51o 1i 2o"/>
    </vehicle>
    <vehicle id="106" depart="1272.00">
        <route edges="4o 54i 54o 4i 1o 51i 51o 1i"/>
    </vehicle>
    <vehicle id="109" depart="1308.00">
        <route edges="2i 1o 51i 51o 1i"/>
    </vehicle>
    <vehicle id="111" depart="1332.00">
        <route edges="2o 52i 52o 2i 1o 51i 51o 1i"/>
    </vehicle>
    <vehicle id="113" depart="1356.00">
        <route edges="1o 1i"/>
    </vehicle>
    <vehicle id="114" depart="1368.00">
        <route edges="1i"/>
    </vehicle>
    <vehicle id="116" depart="1392.00">
        <route edges="1o 51i 51o 1i 2o"/>
    </vehicle>
    <vehicle id="119" depart="1428.00">
        <route edges="54o 4i 3o"/>
    </vehicle>
    <vehicle id="120" depart="1440.00">
        <route edges="1o 51i 51o 1i 2o 52i 52o 2i"/>
    </vehicle>
    <vehicle id="122" depart="1464.00">
        <route edges="3o 53i 53o 3i 2o 52i 52o 2i"/>
    </vehicle>
    <vehicle id="123" depart="1476.00">
        <route edges="4i 3o 53i 53o 3i"/>
    </vehicle>
    <vehicle id="124" depart="1488.00">
        <route edges="4i 1o"/>
    </vehicle>
    <vehicle id="125" depart="1500.00">
        <route edges="4i 3o"/>
    </vehicle>
    <vehicle id="127" depart="1524.00">
        <route edges="3o 53i"/>
    </vehicle>
    <vehicle id="128" depart="1536.00">
        <route edges="3o 53i 53o 3i 2o"/>
    </vehicle>
    <vehicle id="132" depart="1584.00">
        <route edges="2i 1o 51i 51o 1i 2o"/>
    </vehicle>
    <vehicle id="133" depart="1596.00">
        <route edges="3o 53i 53o 3i 2o 52i 52o 2i 1o 51i 51o 1i"/>
    </vehicle>
    <vehicle id="135" depart="1620.00">
        <route edges="1i"/>
    </vehicle>
    <vehicle id="136" depart="1632.00">
        <route edges="2o 52i 52o 2i 1o 51i 51o 1i"/>
    </vehicle>
    <vehicle id="137" depart="1644.00">
        <route edges="3o 53i 53o 3i 2o 52i 52o 2i 1o 51i 51o 1i"/>
    </vehicle>
    <vehicle id="139" depart="1668.00">
        <route edges="4o 54i 54o 4i 3o"/>
    </vehicle>
    <vehicle id="141" depart="1692.00">
        <route edges="3o 53i 53o 3i 4o"/>
    </vehicle>
    <vehicle id="142" depart="1704.00">
        <route edges="3o"/>
    </vehicle>
    <vehicle id="143" depart="1716.00">
        <route edges="3o 53i 53o 3i 4o 54i 54o 4i"/>
    </vehicle>
    <vehicle id="145" depart="1740.00">
        <route edges="4i 1o"/>
    </vehicle>
    <vehicle id="146" depart="1752.00">
        <route edges="3i 4o 54i"/>
    </vehicle>
    <vehicle id="147" depart="1764.00">
        <route edges="3o 53i 53o 3i 4o"/>
    </vehicle>
    <vehicle id="149" depart="1788.00">
        <route edges="2i 1o"/>
    </vehicle>
    <vehicle id="150" depart="1800.00">
        <route edges="3o 53i 53o 3i 2o 52i 52o 2i 1o"/>
    </vehicle>
    <vehicle id="152" depart="1824.00">
        <route edges="54o 4i"/>
    </vehicle>
    <vehicle id="153" depart="1836.00">
        <route edges="53o 3i 4o 54i 54o 4i 3o"/>
    </vehicle>
    <vehicle id="155" depart="1860.00">
        <route edges="4o 54i 54o 4i 3o 53i 53o 3i"/>
    </vehicle>
    <vehicle id="156" depart="1872.00">
        <route edges="1i 2o"/>
    </vehicle>
    <vehicle id="157" depart="1884.00">
        <route edges="1o"/>
    </vehicle>
    <vehicle id="160" depart="1920.00">
        <route edges="4i"/>
    </vehicle>
    <vehicle id="161" depart="1932.00">
        <route edges="1o 51i 51o 1i 2o"/>
    </vehicle>
    <vehicle id="162" depart="1944.00">
        <route edges="1i 2o 52i 52o 2i"/>
    </vehicle>
    <vehicle id="163" depart="1956.00">
        <route edges="3o 53i 53o 3i 4o 54i 54o 4i"/>
    </vehicle>
    <vehicle id="164" depart="1968.00">
        <route edges="4o 54i 54o 4i 1o 51i 51o 1i 2o"/>
    </vehicle>
    <vehicle id="165" depart="1980.00">
        <route edges="1o 1i"/>
    </vehicle>
    <vehicle id="166" depart="1992.00">
        <route edges="4i 1o"/>
    </vehicle>
    <vehicle id="167" depart="2004.00">
        <route edges="53o 3i 4o"/>
    </vehicle>
    <vehicle id="168" depart="2016.00">
        <route edges="3o 53i 53o 3i 2o 52i 52o 2i 1o 51i 51o 1i"/>
    </vehicle>
    <vehicle id="169" depart="2028.00">
        <route edges="1o"/>
    </vehicle>
    <vehicle id="171" depart="2052.00">
        <route edges="3i 2o 52i 52o 2i 1o 51i 51o 1i"/>
    </vehicle>
    <vehicle id="172" depart="2064.00">
        <route edges="3o 53i 53o 3i 4o 54i 54o 4i"/>
    </vehicle>
    <vehicle id="173" depart="2076.00">
        <route edges="1i 2o 52i 52o 2i"/>
    </vehicle>
    <vehicle id="175" depart="2100.00">
        <route edges="4i 1o 51i 51o 1i"/>
    </vehicle>
    <vehicle id="176" depart="2112.00">
        <route edges="54o 4i 1o 51i 51o 1i"/>
    </vehicle>
    <vehicle id="177" depart="2124.00">
        <route edges="4o 54i 54o 4i 1o 51i 51o 1i"/>
    </vehicle>
    <vehicle id="178" depart="2136.00">
        <route edges="3o 53i 53o 3i 2o 52i 52o 2i 1o"/>
    </vehicle>
    <vehicle id="182" depart="2184.00">
        <route edges="2i 1o 51i 51o 1i 2o 52i"/>
    </vehicle>
    <vehicle id="183" depart="2196.00">
        <route edges="4o 54i"/>
    </vehicle>
    <vehicle id="184" depart="2208.00">
        <route edges="54o 4i 1o 51i 51o 1i"/>
    </vehicle>
    <vehicle id="186" depart="2232.00">
        <route edges="1o 1i"/>
    </vehicle>
    <vehicle id="187" depart="2244.00">
        <route edges="1i 2o 52i 52o 2i 1o"/>
    </vehicle>
    <vehicle id="190" depart="2280.00">
        <route edges="4o 54i 54o 4i 1o 51i 51o 1i"/>
    </vehicle>
    <vehicle id="194" depart="2328.00">
        <route edges="52o 2i 1o"/>
    </vehicle>
    <vehicle id="196" depart="2352.00">
        <route edges="4o 54i"/>
    </vehicle>
    <vehicle id="197" depart="2364.00">
        <route edges="3i 2o"/>
    </vehicle>
    <vehicle id="198" depart="2376.00">
        <route edges="3i 2o 52i 52o 2i 1o 51i 51o 1i"/>
    </vehicle>
    <vehicle id="199" depart="2388.00">
        <route edges="54o 4i 1o 51i 51o 1i 2o 52i 52o 2i"/>
    </vehicle>
    <vehicle id="201" depart="2412.00">
        <route edges="4o 54i"/>
    </vehicle>
    <vehicle id="202" depart="2424.00">
        <route edges="4o 54i 54o 4i 3o 53i 53o 3i"/>
    </vehicle>
    <vehicle id="203" depart="2436.00">
        <route edges="2i"/>
    </vehicle>
    <vehicle id="204" depart="2448.00">
        <route edges="1i 2o 52i 52o 2i"/>
    </vehicle>
    <vehicle id="205" depart="2460.00">
        <route edges="52o 2i"/>
    </vehicle>
    <vehicle id="206" depart="2472.00">
        <route edges="4i"/>
    </vehicle>
    <vehicle id="207" depart="2484.00">
        <route edges="4i 3o 53i 53o 3i"/>
    </vehicle>
    <vehicle id="208" depart="2496.00">
        <route edges="4o 54i 54o 4i 1o 51i 51o 1i 2o"/>
    </vehicle>
    <vehicle id="210" depart="2520.00">
        <route edges="1i"/>
    </vehicle>
    <vehicle id="211" depart="2532.00">
        <route edges="2o 52i 52o 2i 1o 51i 51o 1i"/>
    </vehicle>
    <vehicle id="212" depart="2544.00">
        <route edges="2o 52i"/>
    </vehicle>
    <vehicle id="213" depart="2556.00">
        <route edges="3o 53i 53o 3i 4o"/>
    </vehicle>
    <vehicle id="215" depart="2580.00">
        <route edges="52o 2i 1o 51i 51o 1i"/>
    </vehicle>
    <vehicle id="216" depart="2592.00">
        <route edges="53o 3i 2o"/>
    </vehicle>
    <vehicle id="217" depart="2604.00">
        <route edges="3o"/>
    </vehicle>
    <vehicle id="219" depart="2628.00">
        <route edges="3o 53i 53o 3i 4o"/>
    </vehicle>
    <vehicle id="220" depart="2640.00">
        <route edges="3o 53i 53o 3i 2o 52i 52o 2i 1o 51i 51o 1i"/>
    </vehicle>
    <vehicle id="221" depart="2652.00">
        <route edges="54o 4i"/>
    </vehicle>
    <vehicle id="222" depart="2664.00">
        <route edges="2o"/>
    </vehicle>
    <vehicle id="223" depart="2676.00">
        <route edges="2i 1o 51i 51o 1i"/>
    </vehicle>
    <vehicle id="224" depart="2688.00">
        <route edges="3i 4o 54i 54o 4i 3o"/>
    </vehicle>
    <vehicle id="225" depart="2700.00">
        <route edges="4i 3o 53i 53o 3i 4o"/>
    </vehicle>
    <vehicle id="226" depart="2712.00">
        <route edges="3i 2o 52i 52o 2i 1o 51i 51o 1i"/>
    </vehicle>
    <vehicle id="228" depart="2736.00">
        <route edges="1o 1i"/>
    </vehicle>
    <vehicle id="229" depart="2748.00">
        <route edges="3i 2o 52i 52o 2i 1o 51i 51o 1i"/>
    </vehicle>
    <vehicle id="230" depart="2760.00">
        <route edges="4o 54i 54o 4i 3o 53i 53o 3i"/>
    </vehicle>
    <vehicle id="231" depart="2772.00">
        <route edges="1o"/>
    </vehicle>
    <vehicle id="232" depart="2784.00">
        <route edges="4o 4i"/>
    </vehicle>
    <vehicle id="233" depart="2796.00">
        <route edges="2o 52i 52o 2i 1o"/>
    </vehicle>
    <vehicle id="234" depart="2808.00">
        <route edges="4i 1o 51i 51o 1i 2o"/>
    </vehicle>
    <vehicle id="235" depart="2820.00">
        <route edges="3i 4o 54i 54o 4i"/>
    </vehicle>
    <vehicle id="236" depart="2832.00">
        <route edges="4o"/>
    </vehicle>
    <vehicle id="237" depart="2844.00">
        <route edges="4i 3o"/>
    </vehicle>
    <vehicle id="238" depart="2856.00">
        <route edges="3o 53i 53o 3i 2o 52i"/>
    </vehicle>
    <vehicle id="239" depart="2868.00">
        <route edges="53o 3i 2o 52i 52o 2i 1o 51i 51o 1i"/>
    </vehicle>
    <vehicle id="240" depart="2880.00">
        <route edges="2o 52i 52o 2i 1o"/>
    </vehicle>
    <vehicle id="241" depart="2892.00">
        <route edges="2o 52i 52o 2i 1o 51i 51o 1i"/>
    </vehicle>
    <vehicle id="242" depart="2904.00">
        <route edges="1i 2o"/>
    </vehicle>
    <vehicle id="243" depart="2916.00">
        <route edges="4o 54i 54o 4i 1o 51i 51o 1i"/>
    </vehicle>
    <vehicle id="244" depart="2928.00">
        <route edges="3o 53i 53o 3i 2o 52i 52o 2i 1o 51i 51o 1i"/>
    </vehicle>
    <vehicle id="245" depart="2940.00">
        <route edges="1i 2o 52i 52o 2i 1o"/>
    </vehicle>
    <vehicle id="246" depart="2952.00">
        <route edges="3i 4o 54i 54o 4i 3o 53i"/>
    </vehicle>
    <vehicle id="250" depart="3000.00">
        <route edges="54o 4i 1o"/>
    </vehicle>
    <vehicle id="251" depart="3012.00">
        <route edges="3i 4o 54i 54o 4i 3o"/>
    </vehicle>
    <vehicle id="252" depart="3024.00">
        <route edges="1i 2o"/>
    </vehicle>
    <vehicle id="253" depart="3036.00">
        <route edges="4o 54i 54o 4i 1o 51i 51o 1i"/>
    </vehicle>
    <vehicle id="254" depart="3048.00">
        <route edges="4o 4i"/>
    </vehicle>
    <vehicle id="255" depart="3060.00">
        <route edges="3i 4o 54i 54o 4i"/>
    </vehicle>
    <vehicle id="257" depart="3084.00">
        <route edges="2o 2i"/>
    </vehicle>
    <vehicle id="258" depart="3096.00">
        <route edges="54o 4i 3o 53i 53o 3i 4o"/>
    </vehicle>
    <vehicle id="259" depart="3108.00">
        <route edges="54o 4i"/>
    </vehicle>
    <vehicle id="261" depart="3132.00">
        <route edges="54o 4i 1o 51i 51o 1i"/>
    </vehicle>
    <vehicle id="262" depart="3144.00">
        <route edges="54o 54i"/>
    </vehicle>
    <vehicle id="263" depart="3156.00">
        <route edges="54o 4i 1o 51i 51o 1i 2o 52i 52o 2i"/>
    </vehicle>
    <vehicle id="264" depart="3168.00">
        <route edges="1i"/>
    </vehicle>
    <vehicle id="265" depart="3180.00">
        <route edges="54o 4i 3o"/>
    </vehicle>
    <vehicle id="267" depart="3204.00">
        <route edges="4o 54i 54o 4i 3o"/>
    </vehicle>
    <vehicle id="268" depart="3216.00">
        <route edges="3i 2o"/>
    </vehicle>
    <vehicle id="269" depart="3228.00">
        <route edges="54o 4i 3o 53i"/>
    </vehicle>
    <vehicle id="271" depart="3252.00">
        <route edges="3i 4o 54i 54o 4i"/>
    </vehicle>
    <vehicle id="272" depart="3264.00">
        <route edges="1i"/>
    </vehicle>
    <vehicle id="273" depart="3276.00">
        <route edges="4o 54i 54o 4i 1o 51i 51o 1i 2o 52i 52o 2i"/>
    </vehicle>
    <vehicle id="274" depart="3288.00">
        <route edges="1i 2o"/>
    </vehicle>
    <vehicle id="276" depart="3312.00">
        <route edges="54o 4i 1o 51i 51o 1i 2o"/>
    </vehicle>
    <vehicle id="277" depart="3324.00">
        <route edges="1i"/>
    </vehicle>
    <vehicle id="278" depart="3336.00">
        <route edges="4i 1o 51i 51o 1i"/>
    </vehicle>
    <vehicle id="279" depart="3348.00">
        <route edges="4i"/>
    </vehicle>
    <vehicle id="280" depart="3360.00">
        <route edges="2i 1o 51i 51o 1i 2o"/>
    </vehicle>
    <vehicle id="281" depart="3372.00">
        <route edges="2o"/>
    </vehicle>
    <vehicle id="282" depart="3384.00">
        <route edges="3i 2o 52i 52o 2i"/>
    </vehicle>
    <vehicle id="283" depart="3396.00">
        <route edges="3o 53i 53o 3i 2o 52i 52o 2i"/>
    </vehicle>
    <vehicle id="284" depart="3408.00">
        <route edges="53o 3i 2o"/>
    </vehicle>
    <vehicle id="285" depart="3420.00">
        <route edges="3i 4o 54i 54o 4i"/>
    </vehicle>
    <vehicle id="286" depart="3432.00">
        <route edges="54o 4i 3o 53i 53o 3i 4o"/>
    </vehicle>
    <vehicle id="287" depart="3444.00">
        <route edges="1i 2o"/>
    </vehicle>
    <vehicle id="289" depart="3468.00">
        <route edges="2o 52i 52o 2i 1o 51i 51o 1i"/>
    </vehicle>
    <vehicle id="290" depart="3480.00">
        <route edges="3i 4o"/>
    </vehicle>
    <vehicle id="291" depart="3492.00">
        <route edges="3i 4o 54i"/>
    </vehicle>
    <vehicle id="292" depart="3504.00">
        <route edges="2o 52i 52o 2i 1o 51i"/>
    </vehicle>
    <vehicle id="294" depart="3528.00">
        <route edges="4o 54i 54o 4i 1o 51i 51o 1i"/>
    </vehicle>
    <vehicle id="295" depart="3540.00">
        <route edges="3i 4o 54i"/>
    </vehicle>
    <vehicle id="296" depart="3552.00">
        <route edges="3o 53i 53o 3i 2o 52i 52o 2i 1o 51i 51o 1i"/>
    </vehicle>
    <vehicle id="297" depart="3564.00">
        <route edges="1i 2o 52i 52o 2i 1o"/>
    </vehicle>
    <vehicle id="298" depart="3576.00">
        <route edges="53o 3i 2o 52i 52o 2i 1o 51i 51o 1i"/>
    </vehicle>
</routes>
