<?xml version="1.0" encoding="UTF-8"?>

<!-- generated on Sat Nov 14 17:57:35 2020 by Eclipse SUMO duarouter Version 7090c177
<configuration xmlns:xsi="http://www.w3.org/2001/XMLSchema-instance" xsi:noNamespaceSchemaLocation="http://sumo.dlr.de/xsd/duarouterConfiguration.xsd">

    <input>
        <net-file value="configs/example/traffic.net.xml"/>
        <route-files value="configs/example/trips.trips.xml"/>
    </input>

    <output>
        <output-file value="configs/example/traffic.rou.xml"/>
        <alternatives-output value="configs/example/traffic.rou.alt.xml"/>
    </output>

    <time>
        <begin value="0"/>
        <end value="3600"/>
    </time>

    <report>
        <no-warnings value="true"/>
        <ignore-errors value="true"/>
        <no-step-log value="true"/>
    </report>

</configuration>
-->

<routes xmlns:xsi="http://www.w3.org/2001/XMLSchema-instance" xsi:noNamespaceSchemaLocation="http://sumo.dlr.de/xsd/routes_file.xsd">
    <vehicle id="0" depart="0.00">
        <route edges="4o 54i 54o 4i 1o 51i 51o 1i 2o 52i"/>
    </vehicle>
    <vehicle id="1" depart="4.80">
        <route edges="3i 2o 52i 52o 2i 1o"/>
    </vehicle>
    <vehicle id="2" depart="9.60">
        <route edges="3i 2o"/>
    </vehicle>
    <vehicle id="3" depart="14.40">
        <route edges="3o 53i 53o 3i 2o 52i 52o 2i"/>
    </vehicle>
    <vehicle id="5" depart="24.00">
        <route edges="3o 53i 53o 3i 2o 52i 52o 2i"/>
    </vehicle>
    <vehicle id="6" depart="28.80">
        <route edges="3o 53i 53o 3i 2o 52i 52o 2i 1o"/>
    </vehicle>
    <vehicle id="7" depart="33.60">
        <route edges="1o 51i"/>
    </vehicle>
    <vehicle id="8" depart="38.40">
        <route edges="3i 4o 54i"/>
    </vehicle>
    <vehicle id="10" depart="48.00">
        <route edges="3o"/>
    </vehicle>
    <vehicle id="11" depart="52.80">
        <route edges="3o 53i 53o 3i 2o"/>
    </vehicle>
    <vehicle id="12" depart="57.60">
        <route edges="1i 2o"/>
    </vehicle>
    <vehicle id="13" depart="62.40">
        <route edges="1o 1i"/>
    </vehicle>
    <vehicle id="16" depart="76.80">
        <route edges="4o 54i 54o 4i 3o"/>
    </vehicle>
    <vehicle id="17" depart="81.60">
        <route edges="1o 1i"/>
    </vehicle>
    <vehicle id="18" depart="86.40">
        <route edges="1i"/>
    </vehicle>
    <vehicle id="19" depart="91.20">
        <route edges="54o 4i 3o"/>
    </vehicle>
    <vehicle id="21" depart="100.80">
        <route edges="4o 54i 54o 4i 1o 51i 51o 1i 2o"/>
    </vehicle>
    <vehicle id="22" depart="105.60">
        <route edges="1o 51i"/>
    </vehicle>
    <vehicle id="23" depart="110.40">
        <route edges="4o 54i 54o 4i 1o 51i 51o 1i"/>
    </vehicle>
    <vehicle id="26" depart="124.80">
        <route edges="54o 4i 1o 51i 51o 1i 2o 52i 52o 2i"/>
    </vehicle>
    <vehicle id="28" depart="134.40">
        <route edges="1o 1i"/>
    </vehicle>
    <vehicle id="29" depart="139.20">
        <route edges="2o 52i 52o 2i 1o 51i 51o 1i"/>
    </vehicle>
    <vehicle id="30" depart="144.00">
        <route edges="4i 3o 53i"/>
    </vehicle>
    <vehicle id="31" depart="148.80">
        <route edges="4o 54i 54o 4i 1o 51i 51o 1i 2o"/>
    </vehicle>
    <vehicle id="32" depart="153.60">
        <route edges="3i 2o 52i 52o 2i 1o 51i 51o 1i"/>
    </vehicle>
    <vehicle id="34" depart="163.20">
        <route edges="1i 2o 52i 52o 2i"/>
    </vehicle>
    <vehicle id="35" depart="168.00">
        <route edges="1i 2o 52i 52o 2i 1o"/>
    </vehicle>
    <vehicle id="36" depart="172.80">
        <route edges="1o 51i 51o 1i 2o"/>
    </vehicle>
    <vehicle id="37" depart="177.60">
        <route edges="3o 53i 53o 3i 2o 52i 52o 2i 1o 51i 51o 1i"/>
    </vehicle>
    <vehicle id="38" depart="182.40">
        <route edges="53o 3i"/>
    </vehicle>
    <vehicle id="39" depart="187.20">
        <route edges="1o 1i"/>
    </vehicle>
    <vehicle id="40" depart="192.00">
        <route edges="54o 4i 1o 51i 51o 1i 2o"/>
    </vehicle>
    <vehicle id="41" depart="196.80">
        <route edges="4i 1o 51i 51o 1i 2o 52i 52o 2i"/>
    </vehicle>
    <vehicle id="44" depart="211.20">
        <route edges="2i 1o 51i 51o 1i 2o"/>
    </vehicle>
    <vehicle id="45" depart="216.00">
        <route edges="4o 54i 54o 4i 3o 53i"/>
    </vehicle>
    <vehicle id="46" depart="220.80">
        <route edges="1i"/>
    </vehicle>
    <vehicle id="47" depart="225.60">
        <route edges="1i"/>
    </vehicle>
    <vehicle id="49" depart="235.20">
        <route edges="4o 54i 54o 4i 3o 53i 53o 3i"/>
    </vehicle>
    <vehicle id="50" depart="240.00">
        <route edges="1i 2o 52i"/>
    </vehicle>
    <vehicle id="51" depart="244.80">
        <route edges="1i 2o 52i"/>
    </vehicle>
    <vehicle id="52" depart="249.60">
        <route edges="54o 4i"/>
    </vehicle>
    <vehicle id="53" depart="254.40">
        <route edges="1i 2o 52i 52o 2i"/>
    </vehicle>
    <vehicle id="55" depart="264.00">
        <route edges="3i 4o 54i 54o 4i 3o"/>
    </vehicle>
    <vehicle id="57" depart="273.60">
        <route edges="1i 2o"/>
    </vehicle>
    <vehicle id="58" depart="278.40">
        <route edges="2i 1o 51i 51o 1i"/>
    </vehicle>
    <vehicle id="59" depart="283.20">
        <route edges="2i 1o 51i 51o 1i"/>
    </vehicle>
    <vehicle id="61" depart="292.80">
        <route edges="4o 4i"/>
    </vehicle>
    <vehicle id="62" depart="297.60">
        <route edges="53o 3i 2o 52i 52o 2i 1o"/>
    </vehicle>
    <vehicle id="64" depart="307.20">
        <route edges="4o 54i 54o 4i 1o 51i 51o 1i"/>
    </vehicle>
    <vehicle id="65" depart="312.00">
        <route edges="54o 4i 1o 51i 51o 1i"/>
    </vehicle>
    <vehicle id="67" depart="321.60">
        <route edges="52o 2i"/>
    </vehicle>
    <vehicle id="68" depart="326.40">
        <route edges="1i 2o 52i 52o 2i 1o"/>
    </vehicle>
    <vehicle id="69" depart="331.20">
        <route edges="1i"/>
    </vehicle>
    <vehicle id="70" depart="336.00">
        <route edges="54o 4i 1o 51i 51o 1i 2o 52i 52o 2i"/>
    </vehicle>
    <vehicle id="71" depart="340.80">
        <route edges="4o"/>
    </vehicle>
    <vehicle id="72" depart="345.60">
        <route edges="53o 3i 4o"/>
    </vehicle>
    <vehicle id="73" depart="350.40">
        <route edges="4i 3o 53i 53o 3i 4o"/>
    </vehicle>
    <vehicle id="74" depart="355.20">
        <route edges="1i"/>
    </vehicle>
    <vehicle id="75" depart="360.00">
        <route edges="4o 54i 54o 4i 1o 51i 51o 1i"/>
    </vehicle>
    <vehicle id="76" depart="364.80">
        <route edges="54o 54i"/>
    </vehicle>
    <vehicle id="80" depart="384.00">
        <route edges="4o 4i"/>
    </vehicle>
    <vehicle id="81" depart="388.80">
        <route edges="4i"/>
    </vehicle>
    <vehicle id="82" depart="393.60">
        <route edges="3i 4o 54i"/>
    </vehicle>
    <vehicle id="83" depart="398.40">
        <route edges="3o 53i 53o 3i 4o 54i 54o 4i"/>
    </vehicle>
    <vehicle id="84" depart="403.20">
        <route edges="1o 51i 51o 1i 2o 52i"/>
    </vehicle>
    <vehicle id="85" depart="408.00">
        <route edges="2o"/>
    </vehicle>
    <vehicle id="86" depart="412.80">
        <route edges="1o 1i"/>
    </vehicle>
    <vehicle id="87" depart="417.60">
        <route edges="4i 1o 51i 51o 1i 2o"/>
    </vehicle>
    <vehicle id="88" depart="422.40">
        <route edges="3o 53i 53o 3i 2o 52i 52o 2i 1o 51i"/>
    </vehicle>
    <vehicle id="90" depart="432.00">
        <route edges="1o 51i 51o 1i 2o"/>
    </vehicle>
    <vehicle id="91" depart="436.80">
        <route edges="4o 54i 54o 4i 1o 51i 51o 1i"/>
    </vehicle>
    <vehicle id="92" depart="441.60">
        <route edges="54o 4i 1o 51i 51o 1i"/>
    </vehicle>
    <vehicle id="93" depart="446.40">
        <route edges="4o 54i 54o 4i 1o 51i 51o 1i 2o 52i 52o 2i"/>
    </vehicle>
    <vehicle id="94" depart="451.20">
        <route edges="1i"/>
    </vehicle>
    <vehicle id="95" depart="456.00">
        <route edges="4i 1o"/>
    </vehicle>
    <vehicle id="96" depart="460.80">
        <route edges="54o 4i 3o 53i 53o 3i 4o"/>
    </vehicle>
    <vehicle id="98" depart="470.40">
        <route edges="1i 2o 52i"/>
    </vehicle>
    <vehicle id="100" depart="480.00">
        <route edges="4o 54i"/>
    </vehicle>
    <vehicle id="101" depart="484.80">
        <route edges="1o"/>
    </vehicle>
    <vehicle id="102" depart="489.60">
        <route edges="4i 3o 53i 53o 3i 4o 54i"/>
    </vehicle>
    <vehicle id="105" depart="504.00">
        <route edges="4o 54i 54o 4i 1o"/>
    </vehicle>
    <vehicle id="106" depart="508.80">
        <route edges="1i"/>
    </vehicle>
    <vehicle id="107" depart="513.60">
        <route edges="1i"/>
    </vehicle>
    <vehicle id="108" depart="518.40">
        <route edges="1i 2o 52i"/>
    </vehicle>
    <vehicle id="109" depart="523.20">
        <route edges="1i"/>
    </vehicle>
    <vehicle id="113" depart="542.40">
        <route edges="4i 3o 53i"/>
    </vehicle>
    <vehicle id="114" depart="547.20">
        <route edges="4i 1o 51i 51o 1i"/>
    </vehicle>
    <vehicle id="115" depart="552.00">
        <route edges="2o 52i 52o 2i 1o 51i 51o 1i"/>
    </vehicle>
    <vehicle id="116" depart="556.80">
        <route edges="3o 3i"/>
    </vehicle>
    <vehicle id="117" depart="561.60">
        <route edges="4o 54i 54o 4i 1o"/>
    </vehicle>
    <vehicle id="119" depart="571.20">
        <route edges="3i 4o"/>
    </vehicle>
    <vehicle id="121" depart="580.80">
        <route edges="2o 52i 52o 2i 1o 51i 51o 1i"/>
    </vehicle>
    <vehicle id="122" depart="585.60">
        <route edges="1o 1i"/>
    </vehicle>
    <vehicle id="123" depart="590.40">
        <route edges="54o 4i"/>
    </vehicle>
    <vehicle id="124" depart="595.20">
        <route edges="54o 4i 1o 51i 51o 1i 2o 52i"/>
    </vehicle>
    <vehicle id="125" depart="600.00">
        <route edges="1o 51i 51o 1i 2o"/>
    </vehicle>
    <vehicle id="126" depart="604.80">
        <route edges="54o 4i"/>
    </vehicle>
    <vehicle id="127" depart="609.60">
        <route edges="1o 1i"/>
    </vehicle>
    <vehicle id="128" depart="614.40">
        <route edges="4i 3o 53i 53o 3i"/>
    </vehicle>
    <vehicle id="129" depart="619.20">
        <route edges="3o 53i 53o 3i 2o 52i 52o 2i"/>
    </vehicle>
    <vehicle id="130" depart="624.00">
        <route edges="4o 4i"/>
    </vehicle>
    <vehicle id="131" depart="628.80">
        <route edges="1o 51i"/>
    </vehicle>
    <vehicle id="132" depart="633.60">
        <route edges="4i 3o 53i 53o 3i 4o"/>
    </vehicle>
    <vehicle id="134" depart="643.20">
        <route edges="1i 2o 52i 52o 2i 1o"/>
    </vehicle>
    <vehicle id="135" depart="648.00">
        <route edges="3o"/>
    </vehicle>
    <vehicle id="137" depart="657.60">
        <route edges="3o 53i 53o 3i 2o 52i 52o 2i"/>
    </vehicle>
    <vehicle id="139" depart="667.20">
        <route edges="2i"/>
    </vehicle>
    <vehicle id="140" depart="672.00">
        <route edges="1i 2o 52i 52o 2i 1o"/>
    </vehicle>
    <vehicle id="141" depart="676.80">
        <route edges="2o 52i 52o 2i 1o 51i 51o 1i"/>
    </vehicle>
    <vehicle id="142" depart="681.60">
        <route edges="4i 3o 53i"/>
    </vehicle>
    <vehicle id="144" depart="691.20">
        <route edges="2i 1o"/>
    </vehicle>
    <vehicle id="145" depart="696.00">
        <route edges="4i 3o 53i 53o 3i 4o"/>
    </vehicle>
    <vehicle id="148" depart="710.40">
        <route edges="4o 54i 54o 4i 1o 51i 51o 1i 2o 52i 52o 2i"/>
    </vehicle>
    <vehicle id="149" depart="715.20">
        <route edges="4o 54i 54o 4i 3o"/>
    </vehicle>
    <vehicle id="151" depart="724.80">
        <route edges="4o 54i 54o 4i 1o 51i 51o 1i"/>
    </vehicle>
    <vehicle id="152" depart="729.60">
        <route edges="4i 3o 53i 53o 3i 4o"/>
    </vehicle>
    <vehicle id="153" depart="734.40">
        <route edges="1i 2o"/>
    </vehicle>
    <vehicle id="155" depart="744.00">
        <route edges="54o 4i 1o 51i 51o 1i 2o 52i 52o 2i"/>
    </vehicle>
    <vehicle id="156" depart="748.80">
        <route edges="4o 54i 54o 4i 1o 51i 51o 1i 2o 52i 52o 2i"/>
    </vehicle>
    <vehicle id="157" depart="753.60">
        <route edges="1i 2o 52i 52o 2i"/>
    </vehicle>
    <vehicle id="158" depart="758.40">
        <route edges="3i 2o 52i 52o 2i 1o 51i 51o 1i"/>
    </vehicle>
    <vehicle id="159" depart="763.20">
        <route edges="4i 1o 51i 51o 1i 2o 52i 52o 2i"/>
    </vehicle>
    <vehicle id="160" depart="768.00">
        <route edges="4o 54i 54o 4i 1o 51i 51o 1i 2o"/>
    </vehicle>
    <vehicle id="161" depart="772.80">
        <route edges="3i 4o"/>
    </vehicle>
    <vehicle id="163" depart="782.40">
        <route edges="2o"/>
    </vehicle>
    <vehicle id="166" depart="796.80">
        <route edges="1i"/>
    </vehicle>
    <vehicle id="167" depart="801.60">
        <route edges="4o 54i 54o 4i 1o 51i 51o 1i 2o"/>
    </vehicle>
    <vehicle id="168" depart="806.40">
        <route edges="4i 1o"/>
    </vehicle>
    <vehicle id="169" depart="811.20">
        <route edges="4i"/>
    </vehicle>
    <vehicle id="170" depart="816.00">
        <route edges="4i 1o 51i 51o 1i"/>
    </vehicle>
    <vehicle id="171" depart="820.80">
        <route edges="2i 1o 51i 51o 1i"/>
    </vehicle>
    <vehicle id="173" depart="830.40">
        <route edges="4o 54i"/>
    </vehicle>
    <vehicle id="174" depart="835.20">
        <route edges="2o 52i 52o 2i 1o 51i 51o 1i"/>
    </vehicle>
    <vehicle id="175" depart="840.00">
        <route edges="4o 54i 54o 4i 1o"/>
    </vehicle>
    <vehicle id="176" depart="844.80">
        <route edges="3i 4o 54i"/>
    </vehicle>
    <vehicle id="177" depart="849.60">
        <route edges="4o 54i 54o 4i 1o"/>
    </vehicle>
    <vehicle id="178" depart="854.40">
        <route edges="2i 1o 51i 51o 1i"/>
    </vehicle>
    <vehicle id="179" depart="859.20">
        <route edges="4o 54i 54o 4i 1o 51i 51o 1i"/>
    </vehicle>
    <vehicle id="180" depart="864.00">
        <route edges="4i 1o"/>
    </vehicle>
    <vehicle id="182" depart="873.60">
        <route edges="52o 2i 1o 51i 51o 1i"/>
    </vehicle>
    <vehicle id="183" depart="878.40">
        <route edges="52o 2i"/>
    </vehicle>
    <vehicle id="184" depart="883.20">
        <route edges="54o 4i 1o 51i 51o 1i"/>
    </vehicle>
    <vehicle id="185" depart="888.00">
        <route edges="4o 54i 54o 4i 1o"/>
    </vehicle>
    <vehicle id="186" depart="892.80">
        <route edges="4i 1o 51i 51o 1i"/>
    </vehicle>
    <vehicle id="187" depart="897.60">
        <route edges="54o 4i 1o 51i 51o 1i"/>
    </vehicle>
    <vehicle id="189" depart="907.20">
        <route edges="1o 51i 51o 1i 2o"/>
    </vehicle>
    <vehicle id="190" depart="912.00">
        <route edges="1o 1i"/>
    </vehicle>
    <vehicle id="192" depart="921.60">
        <route edges="53o 3i 2o 52i 52o 2i 1o"/>
    </vehicle>
    <vehicle id="193" depart="926.40">
        <route edges="2i 1o 51i 51o 1i 2o 52i"/>
    </vehicle>
    <vehicle id="194" depart="931.20">
        <route edges="54o 4i 1o 51i 51o 1i"/>
    </vehicle>
    <vehicle id="196" depart="940.80">
        <route edges="1i"/>
    </vehicle>
    <vehicle id="197" depart="945.60">
        <route edges="1i 2o 52i 52o 2i"/>
    </vehicle>
    <vehicle id="198" depart="950.40">
        <route edges="2i 1o 51i 51o 1i"/>
    </vehicle>
    <vehicle id="199" depart="955.20">
        <route edges="4i 1o 51i 51o 1i 2o 52i 52o 2i"/>
    </vehicle>
    <vehicle id="201" depart="964.80">
        <route edges="1o 1i"/>
    </vehicle>
    <vehicle id="203" depart="974.40">
        <route edges="4i 1o 51i 51o 1i"/>
    </vehicle>
    <vehicle id="204" depart="979.20">
        <route edges="4i 1o 51i 51o 1i"/>
    </vehicle>
    <vehicle id="205" depart="984.00">
        <route edges="1i 2o 52i 52o 2i 1o"/>
    </vehicle>
    <vehicle id="206" depart="988.80">
        <route edges="3i 2o 52i 52o 2i 1o 51i 51o 1i"/>
    </vehicle>
    <vehicle id="207" depart="993.60">
        <route edges="1i"/>
    </vehicle>
    <vehicle id="208" depart="998.40">
        <route edges="4o"/>
    </vehicle>
    <vehicle id="210" depart="1008.00">
        <route edges="1i 2o 52i 52o 2i 1o"/>
    </vehicle>
    <vehicle id="211" depart="1012.80">
        <route edges="4o"/>
    </vehicle>
    <vehicle id="212" depart="1017.60">
        <route edges="54o 4i 3o 53i"/>
    </vehicle>
    <vehicle id="213" depart="1022.40">
        <route edges="1o 1i"/>
    </vehicle>
    <vehicle id="214" depart="1027.20">
        <route edges="54o 4i 3o 53i"/>
    </vehicle>
    <vehicle id="217" depart="1041.60">
        <route edges="54o 4i 3o 53i 53o 3i 4o"/>
    </vehicle>
    <vehicle id="219" depart="1051.20">
        <route edges="4i 3o 53i 53o 3i 4o"/>
    </vehicle>
    <vehicle id="220" depart="1056.00">
        <route edges="4o 54i 54o 4i 3o 53i 53o 3i"/>
    </vehicle>
    <vehicle id="223" depart="1070.40">
        <route edges="4i 1o 51i 51o 1i"/>
    </vehicle>
    <vehicle id="224" depart="1075.20">
        <route edges="4o 54i 54o 4i 1o 51i 51o 1i"/>
    </vehicle>
    <vehicle id="225" depart="1080.00">
        <route edges="54o 4i 1o 51i 51o 1i 2o 52i 52o 2i"/>
    </vehicle>
    <vehicle id="226" depart="1084.80">
        <route edges="1i"/>
    </vehicle>
    <vehicle id="227" depart="1089.60">
        <route edges="3i 2o 52i"/>
    </vehicle>
    <vehicle id="229" depart="1099.20">
        <route edges="3o"/>
    </vehicle>
    <vehicle id="231" depart="1108.80">
        <route edges="53o 3i"/>
    </vehicle>
    <vehicle id="232" depart="1113.60">
        <route edges="2o 2i"/>
    </vehicle>
    <vehicle id="235" depart="1128.00">
        <route edges="4i"/>
    </vehicle>
    <vehicle id="236" depart="1132.80">
        <route edges="2o 52i"/>
    </vehicle>
    <vehicle id="237" depart="1137.60">
        <route edges="1i 2o 52i 52o 2i 1o 51i"/>
    </vehicle>
    <vehicle id="238" depart="1142.40">
        <route edges="52o 2i"/>
    </vehicle>
    <vehicle id="239" depart="1147.20">
        <route edges="1i"/>
    </vehicle>
    <vehicle id="240" depart="1152.00">
        <route edges="1i 2o"/>
    </vehicle>
    <vehicle id="242" depart="1161.60">
        <route edges="1i 2o"/>
    </vehicle>
    <vehicle id="243" depart="1166.40">
        <route edges="1o 51i 51o 1i 2o"/>
    </vehicle>
    <vehicle id="244" depart="1171.20">
        <route edges="51o 1i"/>
    </vehicle>
    <vehicle id="245" depart="1176.00">
        <route edges="3o 53i 53o 3i 2o 52i 52o 2i 1o"/>
    </vehicle>
    <vehicle id="246" depart="1180.80">
        <route edges="53o 3i 2o 52i 52o 2i 1o 51i 51o 1i"/>
    </vehicle>
    <vehicle id="247" depart="1185.60">
        <route edges="1o 1i"/>
    </vehicle>
    <vehicle id="248" depart="1190.40">
        <route edges="2o 52i 52o 2i 1o"/>
    </vehicle>
    <vehicle id="250" depart="1200.00">
        <route edges="4i 1o 51i 51o 1i 2o 52i 52o 2i"/>
    </vehicle>
    <vehicle id="251" depart="1204.80">
        <route edges="3o 53i"/>
    </vehicle>
    <vehicle id="252" depart="1209.60">
        <route edges="51o 1i 2o 52i 52o 2i 1o"/>
    </vehicle>
    <vehicle id="253" depart="1214.40">
        <route edges="3o 53i 53o 3i 2o 52i 52o 2i 1o"/>
    </vehicle>
    <vehicle id="254" depart="1219.20">
        <route edges="1o 1i"/>
    </vehicle>
    <vehicle id="255" depart="1224.00">
        <route edges="4o 54i 54o 4i 1o 51i 51o 1i 2o 52i 52o 2i"/>
    </vehicle>
    <vehicle id="256" depart="1228.80">
        <route edges="51o 1i 2o"/>
    </vehicle>
    <vehicle id="257" depart="1233.60">
        <route edges="2i 1o 51i 51o 1i"/>
    </vehicle>
    <vehicle id="258" depart="1238.40">
        <route edges="1i 2o"/>
    </vehicle>
    <vehicle id="259" depart="1243.20">
        <route edges="3i 2o 52i 52o 2i 1o 51i 51o 1i"/>
    </vehicle>
    <vehicle id="260" depart="1248.00">
        <route edges="2o 52i 52o 2i 1o 51i 51o 1i"/>
    </vehicle>
    <vehicle id="261" depart="1252.80">
        <route edges="2i 1o 51i 51o 1i 2o"/>
    </vehicle>
    <vehicle id="262" depart="1257.60">
        <route edges="4i 3o 53i"/>
    </vehicle>
    <vehicle id="263" depart="1262.40">
        <route edges="4o 54i 54o 4i 1o 51i 51o 1i 2o 52i 52o 2i"/>
    </vehicle>
    <vehicle id="264" depart="1267.20">
        <route edges="4i 3o 53i 53o 3i 4o"/>
    </vehicle>
    <vehicle id="265" depart="1272.00">
        <route edges="4o 54i 54o 4i 1o 51i 51o 1i"/>
    </vehicle>
    <vehicle id="266" depart="1276.80">
        <route edges="3o 3i"/>
    </vehicle>
    <vehicle id="267" depart="1281.60">
        <route edges="2o 2i"/>
    </vehicle>
    <vehicle id="268" depart="1286.40">
        <route edges="1i"/>
    </vehicle>
    <vehicle id="269" depart="1291.20">
        <route edges="4i 1o 51i 51o 1i"/>
    </vehicle>
    <vehicle id="273" depart="1310.40">
        <route edges="53o 3i 4o"/>
    </vehicle>
    <vehicle id="274" depart="1315.20">
        <route edges="4o 54i 54o 4i 3o"/>
    </vehicle>
    <vehicle id="275" depart="1320.00">
        <route edges="1i 2o"/>
    </vehicle>
    <vehicle id="276" depart="1324.80">
        <route edges="1i 2o 52i 52o 2i"/>
    </vehicle>
    <vehicle id="277" depart="1329.60">
        <route edges="2i 1o 51i 51o 1i"/>
    </vehicle>
    <vehicle id="278" depart="1334.40">
        <route edges="1i 2o"/>
    </vehicle>
    <vehicle id="280" depart="1344.00">
        <route edges="53o 3i 4o 54i 54o 4i"/>
    </vehicle>
    <vehicle id="281" depart="1348.80">
        <route edges="1o 1i"/>
    </vehicle>
    <vehicle id="282" depart="1353.60">
        <route edges="2o 52i"/>
    </vehicle>
    <vehicle id="284" depart="1363.20">
        <route edges="4i 3o"/>
    </vehicle>
    <vehicle id="286" depart="1372.80">
        <route edges="1i 2o 52i 52o 2i 1o"/>
    </vehicle>
    <vehicle id="287" depart="1377.60">
        <route edges="2i 1o"/>
    </vehicle>
    <vehicle id="288" depart="1382.40">
        <route edges="1o 51i 51o 1i 2o"/>
    </vehicle>
    <vehicle id="289" depart="1387.20">
        <route edges="3o 53i 53o 3i 2o 52i 52o 2i"/>
    </vehicle>
    <vehicle id="294" depart="1411.20">
        <route edges="1i 2o"/>
    </vehicle>
    <vehicle id="295" depart="1416.00">
        <route edges="4i 3o 53i 53o 3i 4o"/>
    </vehicle>
    <vehicle id="296" depart="1420.80">
        <route edges="3o 53i 53o 3i 2o 52i 52o 2i"/>
    </vehicle>
    <vehicle id="298" depart="1430.40">
        <route edges="4o 54i 54o 4i 1o 51i 51o 1i"/>
    </vehicle>
    <vehicle id="299" depart="1435.20">
        <route edges="54o 4i 1o 51i 51o 1i"/>
    </vehicle>
    <vehicle id="301" depart="1444.80">
        <route edges="3o 53i 53o 3i 2o 52i 52o 2i 1o"/>
    </vehicle>
    <vehicle id="302" depart="1449.60">
        <route edges="1o 1i"/>
    </vehicle>
    <vehicle id="304" depart="1459.20">
        <route edges="3i 4o 54i 54o 4i 3o 53i"/>
    </vehicle>
    <vehicle id="307" depart="1473.60">
        <route edges="3o 53i 53o 3i 4o"/>
    </vehicle>
    <vehicle id="308" depart="1478.40">
        <route edges="4o 54i 54o 4i 1o"/>
    </vehicle>
    <vehicle id="309" depart="1483.20">
        <route edges="2i 1o"/>
    </vehicle>
    <vehicle id="310" depart="1488.00">
        <route edges="3o 53i 53o 3i 2o 52i 52o 2i 1o 51i 51o 1i"/>
    </vehicle>
    <vehicle id="311" depart="1492.80">
        <route edges="4i 1o 51i"/>
    </vehicle>
    <vehicle id="312" depart="1497.60">
        <route edges="1i 2o 52i 52o 2i 1o 51i"/>
    </vehicle>
    <vehicle id="314" depart="1507.20">
        <route edges="1o 51i 51o 1i 2o 52i 52o 2i"/>
    </vehicle>
    <vehicle id="315" depart="1512.00">
        <route edges="4i 1o 51i 51o 1i 2o 52i 52o 2i"/>
    </vehicle>
    <vehicle id="316" depart="1516.80">
        <route edges="3o 53i 53o 3i 4o 54i"/>
    </vehicle>
    <vehicle id="317" depart="1521.60">
        <route edges="54o 4i 3o"/>
    </vehicle>
    <vehicle id="318" depart="1526.40">
        <route edges="3o 53i 53o 3i 2o 52i 52o 2i 1o 51i 51o 1i"/>
    </vehicle>
    <vehicle id="319" depart="1531.20">
        <route edges="53o 3i 2o 52i 52o 2i"/>
    </vehicle>
    <vehicle id="320" depart="1536.00">
        <route edges="1o 1i"/>
    </vehicle>
    <vehicle id="321" depart="1540.80">
        <route edges="53o 3i 2o 52i 52o 2i 1o 51i 51o 1i"/>
    </vehicle>
    <vehicle id="322" depart="1545.60">
        <route edges="4o 54i 54o 4i 3o 53i 53o 3i"/>
    </vehicle>
    <vehicle id="323" depart="1550.40">
        <route edges="3i 4o"/>
    </vehicle>
    <vehicle id="324" depart="1555.20">
        <route edges="2i 1o 51i 51o 1i 2o"/>
    </vehicle>
    <vehicle id="325" depart="1560.00">
        <route edges="1i"/>
    </vehicle>
    <vehicle id="329" depart="1579.20">
        <route edges="1i 2o 52i 52o 2i"/>
    </vehicle>
    <vehicle id="330" depart="1584.00">
        <route edges="54o 4i"/>
    </vehicle>
    <vehicle id="331" depart="1588.80">
        <route edges="3i 4o 54i 54o 4i 3o"/>
    </vehicle>
    <vehicle id="332" depart="1593.60">
        <route edges="4o 54i 54o 4i 3o 53i 53o 3i"/>
    </vehicle>
    <vehicle id="334" depart="1603.20">
        <route edges="52o 2i 1o 51i 51o 1i"/>
    </vehicle>
    <vehicle id="335" depart="1608.00">
        <route edges="54o 4i 1o 51i 51o 1i 2o"/>
    </vehicle>
    <vehicle id="336" depart="1612.80">
        <route edges="3i 4o"/>
    </vehicle>
    <vehicle id="337" depart="1617.60">
        <route edges="54o 4i 1o 51i 51o 1i"/>
    </vehicle>
    <vehicle id="338" depart="1622.40">
        <route edges="1o 51i 51o 1i 2o 52i 52o 2i"/>
    </vehicle>
    <vehicle id="339" depart="1627.20">
        <route edges="1i 2o 52i"/>
    </vehicle>
    <vehicle id="340" depart="1632.00">
        <route edges="54o 54i"/>
    </vehicle>
    <vehicle id="342" depart="1641.60">
        <route edges="1i 2o 52i 52o 2i 1o 51i"/>
    </vehicle>
    <vehicle id="345" depart="1656.00">
        <route edges="54o 54i"/>
    </vehicle>
    <vehicle id="347" depart="1665.60">
        <route edges="4o"/>
    </vehicle>
    <vehicle id="348" depart="1670.40">
        <route edges="3o 53i 53o 3i 2o 52i 52o 2i 1o"/>
    </vehicle>
    <vehicle id="349" depart="1675.20">
        <route edges="3o 53i 53o 3i 4o 54i 54o 4i"/>
    </vehicle>
    <vehicle id="350" depart="1680.00">
        <route edges="1o 1i"/>
    </vehicle>
    <vehicle id="351" depart="1684.80">
        <route edges="1i"/>
    </vehicle>
    <vehicle id="352" depart="1689.60">
        <route edges="54o 4i 1o 51i 51o 1i"/>
    </vehicle>
    <vehicle id="353" depart="1694.40">
        <route edges="54o 4i"/>
    </vehicle>
    <vehicle id="354" depart="1699.20">
        <route edges="4o"/>
    </vehicle>
    <vehicle id="355" depart="1704.00">
        <route edges="4o 54i 54o 4i 1o 51i 51o 1i"/>
    </vehicle>
    <vehicle id="357" depart="1713.60">
        <route edges="51o 1i"/>
    </vehicle>
    <vehicle id="358" depart="1718.40">
        <route edges="3o 53i 53o 3i 2o 52i 52o 2i 1o 51i 51o 1i"/>
    </vehicle>
    <vehicle id="359" depart="1723.20">
        <route edges="4i 3o 53i 53o 3i 4o"/>
    </vehicle>
    <vehicle id="360" depart="1728.00">
        <route edges="1i 2o 52i 52o 2i 1o"/>
    </vehicle>
    <vehicle id="361" depart="1732.80">
        <route edges="2o 52i 52o 2i 1o 51i 51o 1i"/>
    </vehicle>
    <vehicle id="362" depart="1737.60">
        <route edges="4o 54i 54o 4i 1o 51i 51o 1i"/>
    </vehicle>
    <vehicle id="364" depart="1747.20">
        <route edges="4o 54i 54o 4i 1o 51i 51o 1i"/>
    </vehicle>
    <vehicle id="365" depart="1752.00">
        <route edges="4i 1o"/>
    </vehicle>
    <vehicle id="368" depart="1766.40">
        <route edges="3i 4o"/>
    </vehicle>
    <vehicle id="369" depart="1771.20">
        <route edges="3o 53i 53o 3i 2o 52i 52o 2i 1o"/>
    </vehicle>
    <vehicle id="370" depart="1776.00">
        <route edges="4o 54i 54o 4i 1o"/>
    </vehicle>
    <vehicle id="371" depart="1780.80">
        <route edges="3o 53i 53o 3i 2o 52i 52o 2i 1o 51i 51o 1i"/>
    </vehicle>
    <vehicle id="372" depart="1785.60">
        <route edges="4i"/>
    </vehicle>
    <vehicle id="374" depart="1795.20">
        <route edges="4i 1o 51i 51o 1i 2o 52i 52o 2i"/>
    </vehicle>
    <vehicle id="375" depart="1800.00">
        <route edges="4o 54i"/>
    </vehicle>
    <vehicle id="377" depart="1809.60">
        <route edges="3o 53i 53o 3i 2o 52i 52o 2i"/>
    </vehicle>
    <vehicle id="378" depart="1814.40">
        <route edges="1o 1i"/>
    </vehicle>
    <vehicle id="379" depart="1819.20">
        <route edges="3o 53i 53o 3i 2o 52i 52o 2i 1o 51i 51o 1i"/>
    </vehicle>
    <vehicle id="380" depart="1824.00">
        <route edges="4o 4i"/>
    </vehicle>
    <vehicle id="381" depart="1828.80">
        <route edges="4i 1o 51i 51o 1i 2o 52i 52o 2i"/>
    </vehicle>
    <vehicle id="382" depart="1833.60">
        <route edges="4o 54i 54o 4i 3o 53i 53o 3i"/>
    </vehicle>
    <vehicle id="384" depart="1843.20">
        <route edges="3i 2o 52i 52o 2i 1o 51i 51o 1i"/>
    </vehicle>
    <vehicle id="385" depart="1848.00">
        <route edges="1o 51i 51o 1i 2o"/>
    </vehicle>
    <vehicle id="387" depart="1857.60">
        <route edges="4o 54i 54o 4i 3o 53i 53o 3i"/>
    </vehicle>
    <vehicle id="388" depart="1862.40">
        <route edges="1i 2o 52i 52o 2i 1o"/>
    </vehicle>
    <vehicle id="389" depart="1867.20">
        <route edges="3i 2o 52i 52o 2i"/>
    </vehicle>
    <vehicle id="390" depart="1872.00">
        <route edges="2o 52i 52o 2i 1o 51i 51o 1i"/>
    </vehicle>
    <vehicle id="394" depart="1891.20">
        <route edges="54o 4i 1o 51i 51o 1i"/>
    </vehicle>
    <vehicle id="395" depart="1896.00">
        <route edges="4i 3o 53i 53o 3i 4o 54i"/>
    </vehicle>
    <vehicle id="396" depart="1900.80">