<routes>
        <vType id="typeWE" accel="0.8" decel="4.5" sigma="0.5" length="2.85" minGap="1" maxSpeed="30" guiShape="passenger"/>
        <vType id="typeNS" accel="0.8" decel="5" sigma="0.5" length="2.7" minGap="1" maxSpeed="30" guiShape="emergency"/>
        <vType id="typeSN1" accel="0.8" decel="4.5" sigma="0.5" length="2.7" minGap="1" maxSpeed="30" guiShape="bus"/>
        <vType id="typeSE" accel="0.8" decel="4.5" sigma="0.5" length="2.7" minGap="1" maxSpeed="30" guiShape="bus"/>
        <vType id="typeNW" accel="0.8" decel="4.5" sigma="0.5" length="2.7" minGap="1" maxSpeed="30" guiShape="emergency"/>
        
        <route id="right" edges="51o 1i 2o 52i" />
        <route id="left" edges="52o 2i 1o 51i" />
        <route id="down" edges="54o 4i 3o 53i" />
        <route id="up" edges="53o 3i 4o 54i" />
        <route id="upleft" edges="54o 4i 1o 51i" />
        <route id="southright" edges="53o 3i 2o 52i" />
    <vehicle id="right_0" type="typeWE" route="right" depart="0" />
    <vehicle id="left_1" type="typeWE" route="left" depart="1" />
    <vehicle id="southright_2" type="typeSE" route="southright" depart="1" />
    <vehicle id="upleft_3" type="typeNW" route="upleft" depart="4" />
    <vehicle id="southright_4" type="typeSE" route="southright" depart="5" />
    <vehicle id="up_5" type="typeSN1" route="up" depart="5"/>
    <vehicle id="upleft_6" type="typeNW" route="upleft" depart="6" />
    <vehicle id="right_7" type="typeWE" route="right" depart="7" />
    <vehicle id="southright_8" type="typeSE" route="southright" depart="7" />
    <vehicle id="up_9" type="typeSN1" route="up" depart="8"/>
    <vehicle id="upleft_10" type="typeNW" route="upleft" depart="9" />
    <vehicle id="right_11" type="typeWE" route="right" depart="10" />
    <vehicle id="southright_12" type="typeSE" route="southright" depart="10" />
    <vehicle id="upleft_13" type="typeNW" route="upleft" depart="10" />
    <vehicle id="up_14" type="typeSN1" route="up" depart="10"/>
    <vehicle id="southright_15" type="typeSE" route="southright" depart="11" />
    <vehicle id="upleft_16" type="typeNW" route="upleft" depart="11" />
    <vehicle id="down_17" type="typeNS" route="down" depart="12" color="1,0,0"/>
    <vehicle id="right_18" type="typeWE" route="right" depart="13" />
    <vehicle id="southright_19" type="typeSE" route="southright" depart="14" />
    <vehicle id="down_20" type="typeNS" route="down" depart="14" color="1,0,0"/>
    <vehicle id="left_21" type="typeWE" route="left" depart="15" />
    <vehicle id="down_22" type="typeNS" route="down" depart="15" color="1,0,0"/>
    <vehicle id="down_23" type="typeNS" route="down" depart="16" color="1,0,0"/>
    <vehicle id="southright_24" type="typeSE" route="southright" depart="17" />
    <vehicle id="up_25" type="typeSN1" route="up" depart="18"/>
    <vehicle id="right_26" type="typeWE" route="right" depart="19" />
    <vehicle id="left_27" type="typeWE" route="left" depart="19" />
    <vehicle id="southright_28" type="typeSE" route="southright" depart="19" />
    <vehicle id="left_29" type="typeWE" route="left" depart="20" />
    <vehicle id="left_30" type="typeWE" route="left" depart="21" />
    <vehicle id="left_31" type="typeWE" route="left" depart="22" />
    <vehicle id="right_32" type="typeWE" route="right" depart="24" />
    <vehicle id="right_33" type="typeWE" route="right" depart="27" />
    <vehicle id="upleft_34" type="typeNW" route="upleft" depart="27" />
    <vehicle id="down_35" type="typeNS" route="down" depart="27" color="1,0,0"/>
</routes>
