<?xml version="1.0" encoding="UTF-8"?>

<!-- generated on Thu Nov 19 20:23:05 2020 by Eclipse SUMO duarouter Version 1.6.0
<configuration xmlns:xsi="http://www.w3.org/2001/XMLSchema-instance" xsi:noNamespaceSchemaLocation="http://sumo.dlr.de/xsd/duarouterConfiguration.xsd">

    <input>
        <net-file value="configs/example/traffic.net.xml"/>
        <route-files value="configs/example/trips.trips.xml"/>
    </input>

    <output>
        <output-file value="configs/example/traffic.rou.xml"/>
        <alternatives-output value="configs/example/traffic.rou.alt.xml"/>
    </output>

    <time>
        <begin value="0"/>
        <end value="2469"/>
    </time>

    <report>
        <no-warnings value="true"/>
        <ignore-errors value="true"/>
        <no-step-log value="true"/>
    </report>

</configuration>
-->

<routes xmlns:xsi="http://www.w3.org/2001/XMLSchema-instance" xsi:noNamespaceSchemaLocation="http://sumo.dlr.de/xsd/routes_file.xsd">
    <vehicle id="1" depart="3.53">
        <route edges="3o 53i 53o 3i 4o 54i 54o 4i"/>
    </vehicle>
    <vehicle id="2" depart="7.06">
        <route edges="4o 54i 54o 4i 1o 51i 51o 1i"/>
    </vehicle>
    <vehicle id="6" depart="21.19">
        <route edges="2i 1o 51i 51o 1i"/>
    </vehicle>
    <vehicle id="7" depart="24.73">
        <route edges="4o 54i 54o 4i 1o 51i 51o 1i"/>
    </vehicle>
    <vehicle id="8" depart="28.26">
        <route edges="1i 2o 52i 52o 2i 1o"/>
    </vehicle>
    <vehicle id="9" depart="31.79">
        <route edges="1i 2o"/>
    </vehicle>
    <vehicle id="10" depart="35.32">
        <route edges="3o 3i"/>
    </vehicle>
    <vehicle id="11" depart="38.85">
        <route edges="3o 3i"/>
    </vehicle>
    <vehicle id="12" depart="42.39">
        <route edges="3o 3i"/>
    </vehicle>
    <vehicle id="14" depart="49.45">
        <route edges="52o 2i 1o 51i 51o 1i"/>
    </vehicle>
    <vehicle id="15" depart="52.98">
        <route edges="3o 53i 53o 3i 2o 52i 52o 2i 1o 51i 51o 1i"/>
    </vehicle>
    <vehicle id="16" depart="56.52">
        <route edges="2i 1o 51i 51o 1i"/>
    </vehicle>
    <vehicle id="17" depart="60.05">
        <route edges="3i 2o 52i 52o 2i 1o 51i 51o 1i"/>
    </vehicle>
    <vehicle id="18" depart="63.58">
        <route edges="4o 4i"/>
    </vehicle>
    <vehicle id="19" depart="67.11">
        <route edges="3i 2o"/>
    </vehicle>
    <vehicle id="20" depart="70.64">
        <route edges="1o 51i 51o 1i 2o"/>
    </vehicle>
    <vehicle id="21" depart="74.18">
        <route edges="1o 51i 51o 1i 2o 52i 52o 2i"/>
    </vehicle>
    <vehicle id="22" depart="77.71">
        <route edges="4o 54i 54o 4i 1o 51i 51o 1i 2o"/>
    </vehicle>
    <vehicle id="23" depart="81.24">
        <route edges="53o 3i"/>
    </vehicle>
    <vehicle id="24" depart="84.77">
        <route edges="4i 1o 51i 51o 1i 2o 52i 52o 2i"/>
    </vehicle>
    <vehicle id="25" depart="88.30">
        <route edges="3i 4o 54i 54o 4i"/>
    </vehicle>
    <vehicle id="26" depart="91.84">
        <route edges="4i 1o 51i 51o 1i 2o 52i 52o 2i"/>
    </vehicle>
    <vehicle id="27" depart="95.37">
        <route edges="4i 1o 51i 51o 1i 2o 52i 52o 2i"/>
    </vehicle>
    <vehicle id="28" depart="98.90">
        <route edges="4o 54i 54o 4i 3o 53i 53o 3i"/>
    </vehicle>
    <vehicle id="29" depart="102.43">
        <route edges="4i 3o 53i 53o 3i 4o"/>
    </vehicle>
    <vehicle id="30" depart="105.97">
        <route edges="3i 2o 52i 52o 2i"/>
    </vehicle>
    <vehicle id="31" depart="109.50">
        <route edges="4o 54i 54o 4i 1o 51i 51o 1i"/>
    </vehicle>
    <vehicle id="32" depart="113.03">
        <route edges="3o 53i 53o 3i 2o 52i 52o 2i"/>
    </vehicle>
    <vehicle id="33" depart="116.56">
        <route edges="3i"/>
    </vehicle>
    <vehicle id="34" depart="120.09">
        <route edges="4i 1o"/>
    </vehicle>
    <vehicle id="35" depart="123.63">
        <route edges="53o 3i 2o"/>
    </vehicle>
    <vehicle id="36" depart="127.16">
        <route edges="2i 1o 51i 51o 1i 2o"/>
    </vehicle>
    <vehicle id="37" depart="130.69">
        <route edges="2o 2i"/>
    </vehicle>
    <vehicle id="38" depart="134.22">
        <route edges="4i 1o 51i 51o 1i"/>
    </vehicle>
    <vehicle id="39" depart="137.76">
        <route edges="4i"/>
    </vehicle>
    <vehicle id="40" depart="141.29">
        <route edges="4i 1o 51i 51o 1i 2o"/>
    </vehicle>
    <vehicle id="41" depart="144.82">
        <route edges="2o 2i"/>
    </vehicle>
    <vehicle id="42" depart="148.35">
        <route edges="4o 54i 54o 4i 1o"/>
    </vehicle>
    <vehicle id="43" depart="151.88">
        <route edges="2i 1o 51i 51o 1i 2o"/>
    </vehicle>
    <vehicle id="45" depart="158.95">
        <route edges="3o 53i 53o 3i 4o 54i 54o 4i"/>
    </vehicle>
    <vehicle id="46" depart="162.48">
        <route edges="2o"/>
    </vehicle>
    <vehicle id="47" depart="166.01">
        <route edges="2o 2i"/>
    </vehicle>
    <vehicle id="49" depart="173.08">
        <route edges="3i 2o 52i 52o 2i"/>
    </vehicle>
    <vehicle id="50" depart="176.61">
        <route edges="3o 53i 53o 3i 4o"/>
    </vehicle>
    <vehicle id="51" depart="180.14">
        <route edges="2i 1o"/>
    </vehicle>
    <vehicle id="52" depart="183.67">
        <route edges="3i 4o"/>
    </vehicle>
    <vehicle id="53" depart="187.21">
        <route edges="4i 1o 51i 51o 1i"/>
    </vehicle>
    <vehicle id="56" depart="197.80">
        <route edges="3o 53i 53o 3i 4o"/>
    </vehicle>
    <vehicle id="57" depart="201.33">
        <route edges="3i 2o"/>
    </vehicle>
    <vehicle id="58" depart="204.87">
        <route edges="2i 1o"/>
    </vehicle>
    <vehicle id="59" depart="208.40">
        <route edges="3i 2o 52i 52o 2i 1o 51i"/>
    </vehicle>
    <vehicle id="60" depart="211.93">
        <route edges="4o 54i 54o 4i 3o 53i 53o 3i"/>
    </vehicle>
    <vehicle id="61" depart="215.46">
        <route edges="4o"/>
    </vehicle>
    <vehicle id="62" depart="219.00">
        <route edges="4o 54i 54o 4i 1o 51i 51o 1i 2o 52i 52o 2i"/>
    </vehicle>
    <vehicle id="63" depart="222.53">
        <route edges="3o"/>
    </vehicle>
    <vehicle id="66" depart="233.12">
        <route edges="3o 53i 53o 3i 2o 52i 52o 2i 1o"/>
    </vehicle>
    <vehicle id="67" depart="236.66">
        <route edges="4i 1o 51i 51o 1i 2o"/>
    </vehicle>
    <vehicle id="68" depart="240.19">
        <route edges="3o 53i 53o 3i 4o 54i 54o 4i"/>
    </vehicle>
    <vehicle id="69" depart="243.72">
        <route edges="2i 1o"/>
    </vehicle>
    <vehicle id="70" depart="247.25">
        <route edges="2i 1o 51i 51o 1i"/>
    </vehicle>
    <vehicle id="71" depart="250.79">
        <route edges="2o 52i 52o 2i 1o 51i 51o 1i"/>
    </vehicle>
    <vehicle id="72" depart="254.32">
        <route edges="3o"/>
    </vehicle>
    <vehicle id="74" depart="261.38">
        <route edges="4i 1o"/>
    </vehicle>
    <vehicle id="75" depart="264.91">
        <route edges="3i 2o 52i 52o 2i 1o"/>
    </vehicle>
    <vehicle id="76" depart="268.45">
        <route edges="1o 51i 51o 1i 2o 52i 52o 2i"/>
    </vehicle>
    <vehicle id="77" depart="271.98">
        <route edges="4i 1o 51i 51o 1i 2o 52i 52o 2i"/>
    </vehicle>
    <vehicle id="78" depart="275.51">
        <route edges="4o 54i 54o 4i 1o"/>
    </vehicle>
    <vehicle id="81" depart="286.11">
        <route edges="2i 1o 51i 51o 1i 2o"/>
    </vehicle>
    <vehicle id="82" depart="289.64">
        <route edges="52o 2i 1o"/>
    </vehicle>
    <vehicle id="84" depart="296.70">
        <route edges="2i 1o 51i 51o 1i 2o"/>
    </vehicle>
    <vehicle id="86" depart="303.77">
        <route edges="3i 4o"/>
    </vehicle>
    <vehicle id="87" depart="307.30">
        <route edges="3i"/>
    </vehicle>
    <vehicle id="88" depart="310.83">
        <route edges="2o 52i 52o 2i 1o"/>
    </vehicle>
    <vehicle id="89" depart="314.36">
        <route edges="3o 53i 53o 3i 4o"/>
    </vehicle>
    <vehicle id="91" depart="321.43">
        <route edges="1i 2o"/>
    </vehicle>
    <vehicle id="92" depart="324.96">
        <route edges="3o 53i 53o 3i 2o 52i 52o 2i"/>
    </vehicle>
    <vehicle id="93" depart="328.49">
        <route edges="1i 2o"/>
    </vehicle>
    <vehicle id="94" depart="332.03">
        <route edges="4o 4i"/>
    </vehicle>
    <vehicle id="95" depart="335.56">
        <route edges="3o 53i 53o 3i 2o 52i 52o 2i 1o 51i 51o 1i"/>
    </vehicle>
    <vehicle id="97" depart="342.62">
        <route edges="2o 52i 52o 2i 1o 51i"/>
    </vehicle>
    <vehicle id="98" depart="346.15">
        <route edges="3i"/>
    </vehicle>
    <vehicle id="99" depart="349.69">
        <route edges="3i 2o 52i 52o 2i 1o"/>
    </vehicle>
    <vehicle id="101" depart="356.75">
        <route edges="1i 2o"/>
    </vehicle>
    <vehicle id="103" depart="363.82">
        <route edges="3i 2o 52i 52o 2i 1o"/>
    </vehicle>
    <vehicle id="109" depart="385.01">
        <route edges="4o 54i 54o 4i 1o"/>
    </vehicle>
    <vehicle id="111" depart="392.07">
        <route edges="4i"/>
    </vehicle>
    <vehicle id="112" depart="395.61">
        <route edges="3o 53i 53o 3i 4o 54i 54o 4i"/>
    </vehicle>
    <vehicle id="113" depart="399.14">
        <route edges="2o 2i"/>
    </vehicle>
    <vehicle id="114" depart="402.67">
        <route edges="1i 2o 52i 52o 2i 1o"/>
    </vehicle>
    <vehicle id="115" depart="406.20">
        <route edges="3o 53i 53o 3i 2o 52i 52o 2i 1o 51i 51o 1i"/>
    </vehicle>
    <vehicle id="119" depart="420.33">
        <route edges="3o 53i"/>
    </vehicle>
    <vehicle id="120" depart="423.86">
        <route edges="4o 54i 54o 4i 1o 51i 51o 1i"/>
    </vehicle>
    <vehicle id="121" depart="427.39">
        <route edges="1o 1i"/>
    </vehicle>
    <vehicle id="122" depart="430.93">
        <route edges="2o 2i"/>
    </vehicle>
    <vehicle id="123" depart="434.46">
        <route edges="3o 53i 53o 3i 2o 52i 52o 2i 1o 51i 51o 1i"/>
    </vehicle>
    <vehicle id="124" depart="437.99">
        <route edges="51o 1i 2o 52i 52o 2i 1o"/>
    </vehicle>
    <vehicle id="125" depart="441.52">
        <route edges="4i 3o 53i 53o 3i"/>
    </vehicle>
    <vehicle id="126" depart="445.06">
        <route edges="2i 1o 51i 51o 1i"/>
    </vehicle>
    <vehicle id="127" depart="448.59">
        <route edges="4o 54i"/>
    </vehicle>
    <vehicle id="128" depart="452.12">
        <route edges="3o 3i"/>
    </vehicle>
    <vehicle id="129" depart="455.65">
        <route edges="4o 54i 54o 4i 1o 51i 51o 1i 2o 52i"/>
    </vehicle>
    <vehicle id="130" depart="459.18">
        <route edges="1i"/>
    </vehicle>
    <vehicle id="131" depart="462.72">
        <route edges="1i 2o"/>
    </vehicle>
    <vehicle id="132" depart="466.25">
        <route edges="1i 2o"/>
    </vehicle>
    <vehicle id="133" depart="469.78">
        <route edges="2o"/>
    </vehicle>
    <vehicle id="134" depart="473.31">
        <route edges="3i 2o 52i 52o 2i"/>
    </vehicle>
    <vehicle id="136" depart="480.38">
        <route edges="1i 2o"/>
    </vehicle>
    <vehicle id="137" depart="483.91">
        <route edges="3i 2o 52i 52o 2i 1o"/>
    </vehicle>
    <vehicle id="138" depart="487.44">
        <route edges="1i 2o 52i 52o 2i 1o"/>
    </vehicle>
    <vehicle id="139" depart="490.97">
        <route edges="3i"/>
    </vehicle>
    <vehicle id="140" depart="494.51">
        <route edges="3i 4o 54i 54o 4i 3o"/>
    </vehicle>
    <vehicle id="142" depart="501.57">
        <route edges="53o 3i 4o 54i 54o 4i 3o"/>
    </vehicle>
    <vehicle id="143" depart="505.10">
        <route edges="4o 4i"/>
    </vehicle>
    <vehicle id="144" depart="508.64">
        <route edges="3i 4o 54i 54o 4i 3o"/>
    </vehicle>
    <vehicle id="146" depart="515.70">
        <route edges="1i"/>
    </vehicle>
    <vehicle id="147" depart="519.23">
        <route edges="4i 1o 51i"/>
    </vehicle>
    <vehicle id="150" depart="529.83">
        <route edges="4o 4i"/>
    </vehicle>
    <vehicle id="151" depart="533.36">
        <route edges="1i 2o 52i 52o 2i"/>
    </vehicle>
    <vehicle id="152" depart="536.89">
        <route edges="4i 3o 53i 53o 3i"/>
    </vehicle>
    <vehicle id="153" depart="540.42">
        <route edges="4i 3o 53i 53o 3i"/>
    </vehicle>
    <vehicle id="154" depart="543.96">
        <route edges="2o 2i"/>
    </vehicle>
    <vehicle id="155" depart="547.49">
        <route edges="3o 3i"/>
    </vehicle>
    <vehicle id="156" depart="551.02">
        <route edges="3i 4o"/>
    </vehicle>
    <vehicle id="157" depart="554.55">
        <route edges="4i 3o 53i 53o 3i 4o"/>
    </vehicle>
    <vehicle id="158" depart="558.09">
        <route edges="3o"/>
    </vehicle>
    <vehicle id="159" depart="561.62">
        <route edges="3i 2o 52i 52o 2i"/>
    </vehicle>
    <vehicle id="160" depart="565.15">
        <route edges="2o 52i 52o 2i 1o"/>
    </vehicle>
    <vehicle id="161" depart="568.68">
        <route edges="4i 1o 51i 51o 1i 2o 52i 52o 2i"/>
    </vehicle>
    <vehicle id="163" depart="575.75">
        <route edges="4i 1o 51i 51o 1i"/>
    </vehicle>
    <vehicle id="164" depart="579.28">
        <route edges="4i 3o 53i 53o 3i 4o"/>
    </vehicle>
    <vehicle id="165" depart="582.81">
        <route edges="2o 2i"/>
    </vehicle>
    <vehicle id="166" depart="586.34">
        <route edges="1o 51i 51o 1i 2o 52i 52o 2i"/>
    </vehicle>
    <vehicle id="167" depart="589.88">
        <route edges="4o 54i 54o 4i 1o 51i 51o 1i 2o"/>
    </vehicle>
    <vehicle id="168" depart="593.41">
        <route edges="2o 2i"/>
    </vehicle>
    <vehicle id="169" depart="596.94">
        <route edges="3i 4o 54i 54o 4i"/>
    </vehicle>
    <vehicle id="170" depart="600.47">
        <route edges="3i 2o 52i 52o 2i 1o 51i 51o 1i"/>
    </vehicle>
    <vehicle id="171" depart="604.00">
        <route edges="2o 2i"/>
    </vehicle>
    <vehicle id="172" depart="607.54">
        <route edges="4i 3o 53i 53o 3i"/>
    </vehicle>
    <vehicle id="173" depart="611.07">
        <route edges="2i 1o"/>
    </vehicle>
    <vehicle id="174" depart="614.60">
        <route edges="1i"/>
    </vehicle>
    <vehicle id="176" depart="621.67">
        <route edges="4o 54i 54o 4i 1o"/>
    </vehicle>
    <vehicle id="177" depart="625.20">
        <route edges="2o 52i 52o 2i 1o"/>
    </vehicle>
    <vehicle id="179" depart="632.26">
        <route edges="4o 54i 54o 4i 3o 53i 53o 3i"/>
    </vehicle>
    <vehicle id="181" depart="639.33">
        <route edges="4o 4i"/>
    </vehicle>
    <vehicle id="182" depart="642.86">
        <route edges="3i 2o 52i 52o 2i"/>
    </vehicle>
    <vehicle id="184" depart="649.92">
        <route edges="4o 54i 54o 4i 3o 53i 53o 3i"/>
    </vehicle>
    <vehicle id="185" depart="653.45">
        <route edges="1o"/>
    </vehicle>
    <vehicle id="186" depart="656.99">
        <route edges="2i 1o 51i 51o 1i 2o"/>
    </vehicle>
    <vehicle id="187" depart="660.52">
        <route edges="2i 1o 51i 51o 1i 2o"/>
    </vehicle>
    <vehicle id="188" depart="664.05">
        <route edges="4o 4i"/>
    </vehicle>
    <vehicle id="189" depart="667.58">
        <route edges="1o 1i"/>
    </vehicle>
    <vehicle id="191" depart="674.65">
        <route edges="3i 4o 54i 54o 4i 3o"/>
    </vehicle>
    <vehicle id="192" depart="678.18">
        <route edges="3i 2o 52i 52o 2i"/>
    </vehicle>
    <vehicle id="193" depart="681.71">
        <route edges="3o 53i 53o 3i 4o 54i 54o 4i"/>
    </vehicle>
    <vehicle id="194" depart="685.24">
        <route edges="3i"/>
    </vehicle>
    <vehicle id="195" depart="688.78">
        <route edges="4o 4i"/>
    </vehicle>
    <vehicle id="196" depart="692.31">
        <route edges="2o 52i 52o 2i 1o"/>
    </vehicle>
    <vehicle id="197" depart="695.84">
        <route edges="4i 1o 51i 51o 1i 2o 52i 52o 2i"/>
    </vehicle>
    <vehicle id="199" depart="702.91">
        <route edges="4o 54i 54o 4i 1o 51i 51o 1i"/>
    </vehicle>
    <vehicle id="200" depart="706.44">
        <route edges="1i 2o 52i 52o 2i 1o"/>
    </vehicle>
    <vehicle id="201" depart="709.97">
        <route edges="2i 1o"/>
    </vehicle>
    <vehicle id="202" depart="713.50">
        <route edges="3o 53i 53o 3i 4o 54i 54o 4i"/>
    </vehicle>
    <vehicle id="203" depart="717.03">
        <route edges="3i 4o 54i 54o 4i"/>
    </vehicle>
    <vehicle id="204" depart="720.57">
        <route edges="3o 53i 53o 3i 2o"/>
    </vehicle>
    <vehicle id="205" depart="724.10">
        <route edges="4o 54i 54o 4i 1o 51i"/>
    </vehicle>
    <vehicle id="206" depart="727.63">
        <route edges="2i 1o 51i 51o 1i 2o"/>
    </vehicle>
    <vehicle id="207" depart="731.16">
        <route edges="1o 51i 51o 1i 2o"/>
    </vehicle>
    <vehicle id="208" depart="734.70">
        <route edges="4o 54i 54o 4i 3o"/>
    </vehicle>
    <vehicle id="209" depart="738.23">
        <route edges="4i 1o 51i 51o 1i 2o 52i 52o 2i"/>
    </vehicle>
    <vehicle id="210" depart="741.76">
        <route edges="3i 2o 52i 52o 2i 1o 51i 51o 1i"/>
    </vehicle>
    <vehicle id="211" depart="745.29">
        <route edges="2i 1o"/>
    </vehicle>
    <vehicle id="212" depart="748.82">
        <route edges="3i 4o"/>
    </vehicle>
    <vehicle id="213" depart="752.36">
        <route edges="4o"/>
    </vehicle>
    <vehicle id="214" depart="755.89">
        <route edges="1i 2o"/>
    </vehicle>
    <vehicle id="215" depart="759.42">
        <route edges="4i 3o 53i 53o 3i 4o"/>
    </vehicle>
    <vehicle id="216" depart="762.95">
        <route edges="2o 52i 52o 2i 1o 51i 51o 1i"/>
    </vehicle>
    <vehicle id="218" depart="770.02">
        <route edges="4o 54i 54o 4i 1o 51i 51o 1i 2o 52i 52o 2i"/>
    </vehicle>
    <vehicle id="219" depart="773.55">
        <route edges="2o 52i 52o 2i 1o 51i 51o 1i"/>
    </vehicle>
    <vehicle id="220" depart="777.08">
        <route edges="3o 53i 53o 3i 2o 52i 52o 2i 1o 51i 51o 1i"/>
    </vehicle>
    <vehicle id="221" depart="780.61">
        <route edges="4o 54i 54o 4i 3o"/>
    </vehicle>
    <vehicle id="222" depart="784.15">
        <route edges="4i"/>
    </vehicle>
    <vehicle id="223" depart="787.68">
        <route edges="4o"/>
    </vehicle>
    <vehicle id="224" depart="791.21">
        <route edges="1o"/>
    </vehicle>
    <vehicle id="225" depart="794.74">
        <route edges="3o 53i 53o 3i 2o 52i 52o 2i 1o 51i 51o 1i"/>
    </vehicle>
    <vehicle id="227" depart="801.81">
        <route edges="4i 3o 53i 53o 3i 4o"/>
    </vehicle>
    <vehicle id="228" depart="805.34">
        <route edges="4i 1o 51i 51o 1i 2o 52i 52o 2i"/>
    </vehicle>
    <vehicle id="229" depart="808.87">
        <route edges="1i 2o 52i 52o 2i 1o"/>
    </vehicle>
    <vehicle id="230" depart="812.40">
        <route edges="3o 53i 53o 3i 2o 52i 52o 2i 1o 51i 51o 1i"/>
    </vehicle>
    <vehicle id="231" depart="815.94">
        <route edges="2i 1o"/>
    </vehicle>
    <vehicle id="232" depart="819.47">
        <route edges="3o 53i 53o 3i 2o 52i 52o 2i"/>
    </vehicle>
    <vehicle id="233" depart="823.00">
        <route edges="3i 2o"/>
    </vehicle>
    <vehicle id="234" depart="826.53">
        <route edges="2o 52i 52o 2i 1o 51i 51o 1i"/>
    </vehicle>
    <vehicle id="235" depart="830.06">
        <route edges="3i"/>
    </vehicle>
    <vehicle id="236" depart="833.60">
        <route edges="3o 53i 53o 3i 4o 54i 54o 4i"/>
    </vehicle>
    <vehicle id="239" depart="844.19">
        <route edges="3o 53i 53o 3i 4o 54i 54o 4i"/>
    </vehicle>
    <vehicle id="241" depart="851.26">
        <route edges="3i"/>
    </vehicle>
    <vehicle id="242" depart="854.79">
        <route edges="3o 53i 53o 3i 4o 54i 54o 4i"/>
    </vehicle>
    <vehicle id="244" depart="861.85">
        <route edges="2o 52i 52o 2i 1o 51i 51o 1i"/>
    </vehicle>
    <vehicle id="245" depart="865.39">
        <route edges="4i"/>
    </vehicle>
    <vehicle id="246" depart="868.92">
        <route edges="2i"/>
    </vehicle>
    <vehicle id="247" depart="872.45">
        <route edges="1i 2o"/>
    </vehicle>
    <vehicle id="249" depart="879.52">
        <route edges="4i 1o 51i 51o 1i 2o"/>
    </vehicle>
    <vehicle id="250" depart="883.05">
        <route edges="4i 1o 51i 51o 1i 2o 52i 52o 2i"/>
    </vehicle>
    <vehicle id="251" depart="886.58">
        <route edges="3o"/>
    </vehicle>
    <vehicle id="252" depart="890.11">
        <route edges="3i 4o 54i 54o 4i"/>
    </vehicle>
    <vehicle id="253" depart="893.64">
        <route edges="2i 1o 51i 51o 1i"/>
    </vehicle>
    <vehicle id="254" depart="897.18">
        <route edges="3i 4o 54i 54o 4i 3o"/>
    </vehicle>
    <vehicle id="255" depart="900.71">
        <route edges="4i 1o"/>
    </vehicle>
    <vehicle id="256" depart="904.24">
        <route edges="1i 2o 52i 52o 2i"/>
    </vehicle>
    <vehicle id="257" depart="907.77">
        <route edges="4o"/>
    </vehicle>
    <vehicle id="259" depart="914.84">
        <route edges="4o"/>
    </vehicle>
    <vehicle id="260" depart="918.37">
        <route edges="3i 2o 52i 52o 2i 1o 51i 51o 1i"/>
    </vehicle>
    <vehicle id="262" depart="925.43">
        <route edges="4i 1o"/>
    </vehicle>
    <vehicle id="263" depart="928.97">
        <route edges="3o 53i 53o 3i 4o 54i 54o 4i"/>
    </vehicle>
    <vehicle id="264" depart="932.50">
        <route edges="4o 54i 54o 4i 1o 51i 51o 1i 2o"/>
    </vehicle>
    <vehicle id="265" depart="936.03">
        <route edges="4i 1o 51i 51o 1i 2o 52i 52o 2i"/>
    </vehicle>
    <vehicle id="266" depart="939.56">
        <route edges="52o 2i 1o"/>
    </vehicle>
    <vehicle id="267" depart="943.09">
        <route edges="4o 54i 54o 4i 1o 51i 51o 1i 2o"/>
    </vehicle>
    <vehicle id="269" depart="950.16">
        <route edges="1i 2o"/>
    </vehicle>
    <vehicle id="270" depart="953.69">
        <route edges="2o 2i"/>
    </vehicle>
    <vehicle id="271" depart="957.22">
        <route edges="1o 51i 51o 1i 2o 52i 52o 2i"/>
    </vehicle>
    <vehicle id="274" depart="967.82">
        <route edges="3i"/>
    </vehicle>
    <vehicle id="275" depart="971.35">
        <route edges="3o 53i 53o 3i 4o 54i 54o 4i"/>
    </vehicle>
    <vehicle id="277" depart="978.42">
        <route edges="2i 1o 51i 51o 1i 2o"/>
    </vehicle>
    <vehicle id="278" depart="981.95">
        <route edges="3i 2o 52i 52o 2i 1o 51i 51o 1i"/>
    </vehicle>
    <vehicle id="280" depart="989.01">
        <route edges="4i 3o 53i 53o 3i 4o"/>
    </vehicle>
    <vehicle id="282" depart="996.08">
        <route edges="4i 3o 53i 53o 3i"/>
    </vehicle>
    <vehicle id="284" depart="1003.14">
        <route edges="4i 3o 53i 53o 3i 4o"/>
    </vehicle>
    <vehicle id="285" depart="1006.67">
        <route edges="4i 3o"/>
    </vehicle>
    <vehicle id="286" depart="1010.21">
        <route edges="3o"/>
    </vehicle>
    <vehicle id="287" depart="1013.74">
        <route edges="1o 51i 51o 1i 2o 52i"/>
    </vehicle>
    <vehicle id="291" depart="1027.87">
        <route edges="4o 54i 54o 4i 1o 51i 51o 1i 2o"/>
    </vehicle>
    <vehicle id="292" depart="1031.40">
        <route edges="4o 54i 54o 4i 3o"/>
    </vehicle>
    <vehicle id="294" depart="1038.46">
        <route edges="3o 53i 53o 3i 2o 52i 52o 2i 1o 51i"/>
    </vehicle>
    <vehicle id="295" depart="1042.00">
        <route edges="4o 54i 54o 4i 1o 51i 51o 1i 2o"/>
    </vehicle>
    <vehicle id="296" depart="1045.53">
        <route edges="3o 53i 53o 3i 4o"/>
    </vehicle>
    <vehicle id="297" depart="1049.06">
        <route edges="3o 53i 53o 3i 4o 54i 54o 4i"/>
    </vehicle>
    <vehicle id="299" depart="1056.12">
        <route edges="4i"/>
    </vehicle>
    <vehicle id="300" depart="1059.66">
        <route edges="4i"/>
    </vehicle>
    <vehicle id="301" depart="1063.19">
        <route edges="1o 1i"/>
    </vehicle>
    <vehicle id="302" depart="1066.72">
        <route edges="3i 4o"/>
    </vehicle>
    <vehicle id="303" depart="1070.25">
        <route edges="2i 1o 51i 51o 1i"/>
    </vehicle>
    <vehicle id="304" depart="1073.79">
        <route edges="4o 4i"/>
    </vehicle>
    <vehicle id="306" depart="1080.85">
        <route edges="1i 2o"/>
    </vehicle>
    <vehicle id="307" depart="1084.38">
        <route edges="3o 53i 53o 3i 2o 52i 52o 2i 1o"/>
    </vehicle>
    <vehicle id="308" depart="1087.91">
        <route edges="2o 52i 52o 2i 1o 51i 51o 1i"/>
    </vehicle>
    <vehicle id="309" depart="1091.45">
        <route edges="3o 53i 53o 3i 2o 52i 52o 2i 1o 51i"/>
    </vehicle>
    <vehicle id="311" depart="1098.51">
        <route edges="4o 54i 54o 4i 1o 51i 51o 1i 2o"/>
    </vehicle>
    <vehicle id="312" depart="1102.04">
        <route edges="1o 51i 51o 1i 2o"/>
    </vehicle>
    <vehicle id="313" depart="1105.58">
        <route edges="3o 53i 53o 3i 4o 54i 54o 4i"/>
    </vehicle>
    <vehicle id="315" depart="1112.64">
        <route edges="4i 3o"/>
    </vehicle>
    <vehicle id="317" depart="1119.70">
        <route edges="1i"/>
    </vehicle>
    <vehicle id="318" depart="1123.24">
        <route edges="4o 54i 54o 4i 1o 51i 51o 1i"/>
    </vehicle>
    <vehicle id="320" depart="1130.30">
        <route edges="3i"/>
    </vehicle>
    <vehicle id="321" depart="1133.83">
        <route edges="1o 1i"/>
    </vehicle>
    <vehicle id="322" depart="1137.36">
        <route edges="4i 3o 53i 53o 3i 4o"/>
    </vehicle>
    <vehicle id="324" depart="1144.43">
        <route edges="4i 3o 53i 53o 3i"/>
    </vehicle>
    <vehicle id="325" depart="1147.96">
        <route edges="4i 3o"/>
    </vehicle>
    <vehicle id="326" depart="1151.49">
        <route edges="2o 2i"/>
    </vehicle>
    <vehicle id="332" depart="1172.69">
        <route edges="4o 54i 54o 4i 1o 51i 51o 1i"/>
    </vehicle>
    <vehicle id="333" depart="1176.22">
        <route edges="3i 4o 54i 54o 4i"/>
    </vehicle>
    <vehicle id="334" depart="1179.75">
        <route edges="3i 4o"/>
    </vehicle>
    <vehicle id="337" depart="1190.35">
        <route edges="54o 4i 3o"/>
    </vehicle>
    <vehicle id="338" depart="1193.88">
        <route edges="4o 54i 54o 4i 1o 51i 51o 1i 2o 52i 52o 2i"/>
    </vehicle>
    <vehicle id="340" depart="1200.94">
        <route edges="3o 53i 53o 3i 4o 54i 54o 4i"/>
    </vehicle>
    <vehicle id="341" depart="1204.48">
        <route edges="2i 1o 51i 51o 1i 2o"/>
    </vehicle>
    <vehicle id="342" depart="1208.01">
        <route edges="4o 54i 54o 4i 3o"/>
    </vehicle>
    <vehicle id="343" depart="1211.54">
        <route edges="2o 52i 52o 2i 1o"/>
    </vehicle>
    <vehicle id="344" depart="1215.07">
        <route edges="3o 53i 53o 3i 2o 52i 52o 2i 1o 51i 51o 1i"/>
    </vehicle>
    <vehicle id="345" depart="1218.61">
        <route edges="3i 2o"/>
    </vehicle>
    <vehicle id="346" depart="1222.14">
        <route edges="3o 53i 53o 3i 2o 52i 52o 2i 1o 51i"/>
    </vehicle>
    <vehicle id="347" depart="1225.67">
        <route edges="3o 3i"/>
    </vehicle>
    <vehicle id="348" depart="1229.20">
        <route edges="3i 2o 52i 52o 2i 1o"/>
    </vehicle>
    <vehicle id="349" depart="1232.73">
        <route edges="2i"/>
    </vehicle>
    <vehicle id="350" depart="1236.27">
        <route edges="3o 3i"/>
    </vehicle>
    <vehicle id="351" depart="1239.80">
        <route edges="2o 52i 52o 2i 1o 51i 51o 1i"/>
    </vehicle>
    <vehicle id="352" depart="1243.33">
        <route edges="1o 51i 51o 1i 2o 52i 52o 2i"/>
    </vehicle>
    <vehicle id="353" depart="1246.86">
        <route edges="4i 3o 53i 53o 3i"/>
    </vehicle>
    <vehicle id="354" depart="1250.39">
        <route edges="3i 2o 52i 52o 2i 1o"/>
    </vehicle>
    <vehicle id="356" depart="1257.46">
        <route edges="3o 53i 53o 3i 2o 52i 52o 2i 1o"/>
    </vehicle>
    <vehicle id="358" depart="1264.52">
        <route edges="3i 4o"/>
    </vehicle>
    <vehicle id="359" depart="1268.06">
        <route edges="2i 1o"/>
    </vehicle>
    <vehicle id="360" depart="1271.59">
        <route edges="4o"/>
    </vehicle>
    <vehicle id="363" depart="1282.18">
        <route edges="1o 51i 51o 1i 2o 52i 52o 2i"/>
    </vehicle>
    <vehicle id="365" depart="1289.25">
        <route edges="1o"/>
    </vehicle>
    <vehicle id="366" depart="1292.78">
        <route edges="1i 2o 52i 52o 2i 1o"/>
    </vehicle>
    <vehicle id="367" depart="1296.31">
        <route edges="4o 54i 54o 4i 3o 53i 53o 3i"/>
    </vehicle>
    <vehicle id="368" depart="1299.85">
        <route edges="2i"/>
    </vehicle>
    <vehicle id="369" depart="1303.38">
        <route edges="4o 54i 54o 4i 3o 53i 53o 3i"/>
    </vehicle>
    <vehicle id="370" depart="1306.91">
        <route edges="1i 2o 52i 52o 2i 1o"/>
    </vehicle>
    <vehicle id="371" depart="1310.44">
        <route edges="1i 2o"/>
    </vehicle>
    <vehicle id="372" depart="1313.97">
        <route edges="4i 1o"/>
    </vehicle>
    <vehicle id="374" depart="1321.04">
        <route edges="3o 53i"/>
    </vehicle>
    <vehicle id="375" depart="1324.57">
        <route edges="4i 1o 51i 51o 1i 2o"/>
    </vehicle>
    <vehicle id="377" depart="1331.64">
        <route edges="3o 53i 53o 3i 2o 52i 52o 2i 1o"/>
    </vehicle>
    <vehicle id="379" depart="1338.70">
        <route edges="1o 51i 51o 1i 2o"/>
    </vehicle>
    <vehicle id="380" depart="1342.23">
        <route edges="2o 52i 52o 2i 1o"/>
    </vehicle>
    <vehicle id="381" depart="1345.76">
        <route edges="2i 1o 51i 51o 1i"/>
    </vehicle>
    <vehicle id="382" depart="1349.30">
        <route edges="4i 3o"/>
    </vehicle>
    <vehicle id="383" depart="1352.83">
        <route edges="3o 53i 53o 3i 2o 52i 52o 2i 1o"/>
    </vehicle>
    <vehicle id="386" depart="1363.42">
        <route edges="3o"/>
    </vehicle>
    <vehicle id="387" depart="1366.96">
        <route edges="4i 3o 53i 53o 3i 4o"/>
    </vehicle>
    <vehicle id="388" depart="1370.49">
        <route edges="1o 1i"/>
    </vehicle>