<?xml version="1.0" encoding="UTF-8"?>
<!-- generated on 2020-11-19 20:23:00.978756 by baselines_test.py UNKNOWN
  options: 
-->
<routes xmlns:xsi="http://www.w3.org/2001/XMLSchema-instance" xsi:noNamespaceSchemaLocation="http://sumo.dlr.de/xsd/routes_file.xsd">
    <trip id="0" depart="0.00" from="2i" to="3o"/>
    <trip id="1" depart="3.53" from="3o" to="4i"/>
    <trip id="2" depart="7.06" from="4o" to="1i"/>
    <trip id="3" depart="10.60" from="1o" to="54i"/>
    <trip id="4" depart="14.13" from="2i" to="4i"/>
    <trip id="5" depart="17.66" from="1o" to="4i"/>
    <trip id="6" depart="21.19" from="2i" to="1i"/>
    <trip id="7" depart="24.73" from="4o" to="1i"/>
    <trip id="8" depart="28.26" from="1i" to="1o"/>
    <trip id="9" depart="31.79" from="1i" to="2o"/>
    <trip id="10" depart="35.32" from="3o" to="3i"/>
    <trip id="11" depart="38.85" from="3o" to="3i"/>
    <trip id="12" depart="42.39" from="3o" to="3i"/>
    <trip id="13" depart="45.92" from="2o" to="3o"/>
    <trip id="14" depart="49.45" from="52o" to="1i"/>
    <trip id="15" depart="52.98" from="3o" to="1i"/>
    <trip id="16" depart="56.52" from="2i" to="1i"/>
    <trip id="17" depart="60.05" from="3i" to="1i"/>
    <trip id="18" depart="63.58" from="4o" to="4i"/>
    <trip id="19" depart="67.11" from="3i" to="2o"/>
    <trip id="20" depart="70.64" from="1o" to="2o"/>
    <trip id="21" depart="74.18" from="1o" to="2i"/>
    <trip id="22" depart="77.71" from="4o" to="2o"/>
    <trip id="23" depart="81.24" from="53o" to="3i"/>
    <trip id="24" depart="84.77" from="4i" to="2i"/>
    <trip id="25" depart="88.30" from="3i" to="4i"/>
    <trip id="26" depart="91.84" from="4i" to="2i"/>
    <trip id="27" depart="95.37" from="4i" to="2i"/>
    <trip id="28" depart="98.90" from="4o" to="3i"/>
    <trip id="29" depart="102.43" from="4i" to="4o"/>
    <trip id="30" depart="105.97" from="3i" to="2i"/>
    <trip id="31" depart="109.50" from="4o" to="1i"/>
    <trip id="32" depart="113.03" from="3o" to="2i"/>
    <trip id="33" depart="116.56" from="3i" to="3i"/>
    <trip id="34" depart="120.09" from="4i" to="1o"/>
    <trip id="35" depart="123.63" from="53o" to="2o"/>
    <trip id="36" depart="127.16" from="2i" to="2o"/>
    <trip id="37" depart="130.69" from="2o" to="2i"/>
    <trip id="38" depart="134.22" from="4i" to="1i"/>
    <trip id="39" depart="137.76" from="4i" to="4i"/>
    <trip id="40" depart="141.29" from="4i" to="2o"/>
    <trip id="41" depart="144.82" from="2o" to="2i"/>
    <trip id="42" depart="148.35" from="4o" to="1o"/>
    <trip id="43" depart="151.88" from="2i" to="2o"/>
    <trip id="44" depart="155.42" from="2o" to="4i"/>
    <trip id="45" depart="158.95" from="3o" to="4i"/>
    <trip id="46" depart="162.48" from="2o" to="2o"/>
    <trip id="47" depart="166.01" from="2o" to="2i"/>
    <trip id="48" depart="169.55" from="1o" to="3o"/>
    <trip id="49" depart="173.08" from="3i" to="2i"/>
    <trip id="50" depart="176.61" from="3o" to="4o"/>
    <trip id="51" depart="180.14" from="2i" to="1o"/>
    <trip id="52" depart="183.67" from="3i" to="4o"/>
    <trip id="53" depart="187.21" from="4i" to="1i"/>
    <trip id="54" depart="190.74" from="2o" to="4o"/>
    <trip id="55" depart="194.27" from="2o" to="4i"/>
    <trip id="56" depart="197.80" from="3o" to="4o"/>
    <trip id="57" depart="201.33" from="3i" to="2o"/>
    <trip id="58" depart="204.87" from="2i" to="1o"/>
    <trip id="59" depart="208.40" from="3i" to="51i"/>
    <trip id="60" depart="211.93" from="4o" to="3i"/>
    <trip id="61" depart="215.46" from="4o" to="4o"/>
    <trip id="62" depart="219.00" from="4o" to="2i"/>
    <trip id="63" depart="222.53" from="3o" to="3o"/>
    <trip id="64" depart="226.06" from="2o" to="4i"/>
    <trip id="65" depart="229.59" from="1i" to="3i"/>
    <trip id="66" depart="233.12" from="3o" to="1o"/>
    <trip id="67" depart="236.66" from="4i" to="2o"/>
    <trip id="68" depart="240.19" from="3o" to="4i"/>
    <trip id="69" depart="243.72" from="2i" to="1o"/>
    <trip id="70" depart="247.25" from="2i" to="1i"/>
    <trip id="71" depart="250.79" from="2o" to="1i"/>
    <trip id="72" depart="254.32" from="3o" to="3o"/>
    <trip id="73" depart="257.85" from="2o" to="54i"/>
    <trip id="74" depart="261.38" from="4i" to="1o"/>
    <trip id="75" depart="264.91" from="3i" to="1o"/>
    <trip id="76" depart="268.45" from="1o" to="2i"/>
    <trip id="77" depart="271.98" from="4i" to="2i"/>
    <trip id="78" depart="275.51" from="4o" to="1o"/>
    <trip id="79" depart="279.04" from="2o" to="3i"/>
    <trip id="80" depart="282.58" from="2i" to="3i"/>
    <trip id="81" depart="286.11" from="2i" to="2o"/>
    <trip id="82" depart="289.64" from="52o" to="1o"/>
    <trip id="83" depart="293.17" from="2i" to="4o"/>
    <trip id="84" depart="296.70" from="2i" to="2o"/>
    <trip id="85" depart="300.24" from="1o" to="3o"/>
    <trip id="86" depart="303.77" from="3i" to="4o"/>
    <trip id="87" depart="307.30" from="3i" to="3i"/>
    <trip id="88" depart="310.83" from="2o" to="1o"/>
    <trip id="89" depart="314.36" from="3o" to="4o"/>
    <trip id="90" depart="317.90" from="2o" to="4o"/>
    <trip id="91" depart="321.43" from="1i" to="2o"/>
    <trip id="92" depart="324.96" from="3o" to="2i"/>
    <trip id="93" depart="328.49" from="1i" to="2o"/>
    <trip id="94" depart="332.03" from="4o" to="4i"/>
    <trip id="95" depart="335.56" from="3o" to="1i"/>
    <trip id="96" depart="339.09" from="2o" to="4o"/>
    <trip id="97" depart="342.62" from="2o" to="51i"/>
    <trip id="98" depart="346.15" from="3i" to="3i"/>
    <trip id="99" depart="349.69" from="3i" to="1o"/>
    <trip id="100" depart="353.22" from="1o" to="4o"/>
    <trip id="101" depart="356.75" from="1i" to="2o"/>
    <trip id="102" depart="360.28" from="1i" to="3o"/>
    <trip id="103" depart="363.82" from="3i" to="1o"/>
    <trip id="104" depart="367.35" from="52o" to="3i"/>
    <trip id="105" depart="370.88" from="2o" to="3i"/>
    <trip id="106" depart="374.41" from="1o" to="4o"/>
    <trip id="107" depart="377.94" from="2o" to="4o"/>
    <trip id="108" depart="381.48" from="51o" to="3i"/>
    <trip id="109" depart="385.01" from="4o" to="1o"/>
    <trip id="110" depart="388.54" from="2i" to="3i"/>
    <trip id="111" depart="392.07" from="4i" to="4i"/>
    <trip id="112" depart="395.61" from="3o" to="4i"/>
    <trip id="113" depart="399.14" from="2o" to="2i"/>
    <trip id="114" depart="402.67" from="1i" to="1o"/>
    <trip id="115" depart="406.20" from="3o" to="1i"/>
    <trip id="116" depart="409.73" from="2i" to="4o"/>
    <trip id="117" depart="413.27" from="1o" to="3o"/>
    <trip id="118" depart="416.80" from="52o" to="4i"/>
    <trip id="119" depart="420.33" from="3o" to="53i"/>
    <trip id="120" depart="423.86" from="4o" to="1i"/>
    <trip id="121" depart="427.39" from="1o" to="1i"/>
    <trip id="122" depart="430.93" from="2o" to="2i"/>
    <trip id="123" depart="434.46" from="3o" to="1i"/>
    <trip id="124" depart="437.99" from="51o" to="1o"/>
    <trip id="125" depart="441.52" from="4i" to="3i"/>
    <trip id="126" depart="445.06" from="2i" to="1i"/>
    <trip id="127" depart="448.59" from="4o" to="54i"/>
    <trip id="128" depart="452.12" from="3o" to="3i"/>
    <trip id="129" depart="455.65" from="4o" to="52i"/>
    <trip id="130" depart="459.18" from="1i" to="1i"/>
    <trip id="131" depart="462.72" from="1i" to="2o"/>
    <trip id="132" depart="466.25" from="1i" to="2o"/>
    <trip id="133" depart="469.78" from="2o" to="2o"/>
    <trip id="134" depart="473.31" from="3i" to="2i"/>
    <trip id="135" depart="476.85" from="2i" to="4i"/>
    <trip id="136" depart="480.38" from="1i" to="2o"/>
    <trip id="137" depart="483.91" from="3i" to="1o"/>
    <trip id="138" depart="487.44" from="1i" to="1o"/>
    <trip id="139" depart="490.97" from="3i" to="3i"/>
    <trip id="140" depart="494.51" from="3i" to="3o"/>
    <trip id="141" depart="498.04" from="1i" to="4o"/>
    <trip id="142" depart="501.57" from="53o" to="3o"/>
    <trip id="143" depart="505.10" from="4o" to="4i"/>
    <trip id="144" depart="508.64" from="3i" to="3o"/>
    <trip id="145" depart="512.17" from="2i" to="4i"/>
    <trip id="146" depart="515.70" from="1i" to="1i"/>
    <trip id="147" depart="519.23" from="4i" to="51i"/>
    <trip id="148" depart="522.76" from="1i" to="4o"/>
    <trip id="149" depart="526.30" from="1o" to="3o"/>
    <trip id="150" depart="529.83" from="4o" to="4i"/>
    <trip id="151" depart="533.36" from="1i" to="2i"/>
    <trip id="152" depart="536.89" from="4i" to="3i"/>
    <trip id="153" depart="540.42" from="4i" to="3i"/>
    <trip id="154" depart="543.96" from="2o" to="2i"/>
    <trip id="155" depart="547.49" from="3o" to="3i"/>
    <trip id="156" depart="551.02" from="3i" to="4o"/>
    <trip id="157" depart="554.55" from="4i" to="4o"/>
    <trip id="158" depart="558.09" from="3o" to="3o"/>
    <trip id="159" depart="561.62" from="3i" to="2i"/>
    <trip id="160" depart="565.15" from="2o" to="1o"/>
    <trip id="161" depart="568.68" from="4i" to="2i"/>
    <trip id="162" depart="572.21" from="1o" to="4i"/>
    <trip id="163" depart="575.75" from="4i" to="1i"/>
    <trip id="164" depart="579.28" from="4i" to="4o"/>
    <trip id="165" depart="582.81" from="2o" to="2i"/>
    <trip id="166" depart="586.34" from="1o" to="2i"/>
    <trip id="167" depart="589.88" from="4o" to="2o"/>
    <trip id="168" depart="593.41" from="2o" to="2i"/>
    <trip id="169" depart="596.94" from="3i" to="4i"/>
    <trip id="170" depart="600.47" from="3i" to="1i"/>
    <trip id="171" depart="604.00" from="2o" to="2i"/>
    <trip id="172" depart="607.54" from="4i" to="3i"/>
    <trip id="173" depart="611.07" from="2i" to="1o"/>
    <trip id="174" depart="614.60" from="1i" to="1i"/>
    <trip id="175" depart="618.13" from="2o" to="3i"/>
    <trip id="176" depart="621.67" from="4o" to="1o"/>
    <trip id="177" depart="625.20" from="2o" to="1o"/>
    <trip id="178" depart="628.73" from="2o" to="3o"/>
    <trip id="179" depart="632.26" from="4o" to="3i"/>
    <trip id="180" depart="635.79" from="1i" to="54i"/>
    <trip id="181" depart="639.33" from="4o" to="4i"/>
    <trip id="182" depart="642.86" from="3i" to="2i"/>
    <trip id="183" depart="646.39" from="1i" to="3o"/>
    <trip id="184" depart="649.92" from="4o" to="3i"/>
    <trip id="185" depart="653.45" from="1o" to="1o"/>
    <trip id="186" depart="656.99" from="2i" to="2o"/>
    <trip id="187" depart="660.52" from="2i" to="2o"/>
    <trip id="188" depart="664.05" from="4o" to="4i"/>
    <trip id="189" depart="667.58" from="1o" to="1i"/>
    <trip id="190" depart="671.12" from="2o" to="4i"/>
    <trip id="191" depart="674.65" from="3i" to="3o"/>
    <trip id="192" depart="678.18" from="3i" to="2i"/>
    <trip id="193" depart="681.71" from="3o" to="4i"/>
    <trip id="194" depart="685.24" from="3i" to="3i"/>
    <trip id="195" depart="688.78" from="4o" to="4i"/>
    <trip id="196" depart="692.31" from="2o" to="1o"/>
    <trip id="197" depart="695.84" from="4i" to="2i"/>
    <trip id="198" depart="699.37" from="1i" to="4i"/>
    <trip id="199" depart="702.91" from="4o" to="1i"/>
    <trip id="200" depart="706.44" from="1i" to="1o"/>
    <trip id="201" depart="709.97" from="2i" to="1o"/>
    <trip id="202" depart="713.50" from="3o" to="4i"/>
    <trip id="203" depart="717.03" from="3i" to="4i"/>
    <trip id="204" depart="720.57" from="3o" to="2o"/>
    <trip id="205" depart="724.10" from="4o" to="51i"/>
    <trip id="206" depart="727.63" from="2i" to="2o"/>
    <trip id="207" depart="731.16" from="1o" to="2o"/>
    <trip id="208" depart="734.70" from="4o" to="3o"/>
    <trip id="209" depart="738.23" from="4i" to="2i"/>
    <trip id="210" depart="741.76" from="3i" to="1i"/>
    <trip id="211" depart="745.29" from="2i" to="1o"/>
    <trip id="212" depart="748.82" from="3i" to="4o"/>
    <trip id="213" depart="752.36" from="4o" to="4o"/>
    <trip id="214" depart="755.89" from="1i" to="2o"/>
    <trip id="215" depart="759.42" from="4i" to="4o"/>
    <trip id="216" depart="762.95" from="2o" to="1i"/>
    <trip id="217" depart="766.48" from="2i" to="4i"/>
    <trip id="218" depart="770.02" from="4o" to="2i"/>
    <trip id="219" depart="773.55" from="2o" to="1i"/>
    <trip id="220" depart="777.08" from="3o" to="1i"/>
    <trip id="221" depart="780.61" from="4o" to="3o"/>
    <trip id="222" depart="784.15" from="4i" to="4i"/>
    <trip id="223" depart="787.68" from="4o" to="4o"/>
    <trip id="224" depart="791.21" from="1o" to="1o"/>
    <trip id="225" depart="794.74" from="3o" to="1i"/>
    <trip id="226" depart="798.27" from="2i" to="3o"/>
    <trip id="227" depart="801.81" from="4i" to="4o"/>
    <trip id="228" depart="805.34" from="4i" to="2i"/>
    <trip id="229" depart="808.87" from="1i" to="1o"/>
    <trip id="230" depart="812.40" from="3o" to="1i"/>
    <trip id="231" depart="815.94" from="2i" to="1o"/>
    <trip id="232" depart="819.47" from="3o" to="2i"/>
    <trip id="233" depart="823.00" from="3i" to="2o"/>
    <trip id="234" depart="826.53" from="2o" to="1i"/>
    <trip id="235" depart="830.06" from="3i" to="3i"/>
    <trip id="236" depart="833.60" from="3o" to="4i"/>
    <trip id="237" depart="837.13" from="2i" to="4o"/>
    <trip id="238" depart="840.66" from="2o" to="4o"/>
    <trip id="239" depart="844.19" from="3o" to="4i"/>
    <trip id="240" depart="847.73" from="1i" to="4i"/>
    <trip id="241" depart="851.26" from="3i" to="3i"/>
    <trip id="242" depart="854.79" from="3o" to="4i"/>
    <trip id="243" depart="858.32" from="51o" to="3i"/>
    <trip id="244" depart="861.85" from="2o" to="1i"/>
    <trip id="245" depart="865.39" from="4i" to="4i"/>
    <trip id="246" depart="868.92" from="2i" to="2i"/>
    <trip id="247" depart="872.45" from="1i" to="2o"/>
    <trip id="248" depart="875.98" from="2i" to="3o"/>
    <trip id="249" depart="879.52" from="4i" to="2o"/>
    <trip id="250" depart="883.05" from="4i" to="2i"/>
    <trip id="251" depart="886.58" from="3o" to="3o"/>
    <trip id="252" depart="890.11" from="3i" to="4i"/>
    <trip id="253" depart="893.64" from="2i" to="1i"/>
    <trip id="254" depart="897.18" from="3i" to="3o"/>
    <trip id="255" depart="900.71" from="4i" to="1o"/>
    <trip id="256" depart="904.24" from="1i" to="2i"/>
    <trip id="257" depart="907.77" from="4o" to="4o"/>
    <trip id="258" depart="911.30" from="1i" to="3i"/>
    <trip id="259" depart="914.84" from="4o" to="4o"/>
    <trip id="260" depart="918.37" from="3i" to="1i"/>
    <trip id="261" depart="921.90" from="2i" to="3o"/>
    <trip id="262" depart="925.43" from="4i" to="1o"/>
    <trip id="263" depart="928.97" from="3o" to="4i"/>
    <trip id="264" depart="932.50" from="4o" to="2o"/>
    <trip id="265" depart="936.03" from="4i" to="2i"/>
    <trip id="266" depart="939.56" from="52o" to="1o"/>
    <trip id="267" depart="943.09" from="4o" to="2o"/>
    <trip id="268" depart="946.63" from="2o" to="4o"/>
    <trip id="269" depart="950.16" from="1i" to="2o"/>
    <trip id="270" depart="953.69" from="2o" to="2i"/>
    <trip id="271" depart="957.22" from="1o" to="2i"/>
    <trip id="272" depart="960.76" from="1o" to="4i"/>
    <trip id="273" depart="964.29" from="1i" to="4i"/>
    <trip id="274" depart="967.82" from="3i" to="3i"/>
    <trip id="275" depart="971.35" from="3o" to="4i"/>
    <trip id="276" depart="974.88" from="1o" to="3o"/>
    <trip id="277" depart="978.42" from="2i" to="2o"/>
    <trip id="278" depart="981.95" from="3i" to="1i"/>
    <trip id="279" depart="985.48" from="1i" to="4i"/>
    <trip id="280" depart="989.01" from="4i" to="4o"/>
    <trip id="281" depart="992.55" from="1o" to="3i"/>
    <trip id="282" depart="996.08" from="4i" to="3i"/>
    <trip id="283" depart="999.61" from="1i" to="3o"/>
    <trip id="284" depart="1003.14" from="4i" to="4o"/>
    <trip id="285" depart="1006.67" from="4i" to="3o"/>
    <trip id="286" depart="1010.21" from="3o" to="3o"/>
    <trip id="287" depart="1013.74" from="1o" to="52i"/>
    <trip id="288" depart="1017.27" from="2i" to="3i"/>
    <trip id="289" depart="1020.80" from="1i" to="4i"/>
    <trip id="290" depart="1024.33" from="1i" to="4o"/>
    <trip id="291" depart="1027.87" from="4o" to="2o"/>
    <trip id="292" depart="1031.40" from="4o" to="3o"/>
    <trip id="293" depart="1034.93" from="51o" to="4o"/>
    <trip id="294" depart="1038.46" from="3o" to="51i"/>
    <trip id="295" depart="1042.00" from="4o" to="2o"/>
    <trip id="296" depart="1045.53" from="3o" to="4o"/>
    <trip id="297" depart="1049.06" from="3o" to="4i"/>
    <trip id="298" depart="1052.59" from="2i" to="4o"/>
    <trip id="299" depart="1056.12" from="4i" to="4i"/>
    <trip id="300" depart="1059.66" from="4i" to="4i"/>
    <trip id="301" depart="1063.19" from="1o" to="1i"/>
    <trip id="302" depart="1066.72" from="3i" to="4o"/>
    <trip id="303" depart="1070.25" from="2i" to="1i"/>
    <trip id="304" depart="1073.79" from="4o" to="4i"/>
    <trip id="305" depart="1077.32" from="1i" to="4i"/>
    <trip id="306" depart="1080.85" from="1i" to="2o"/>
    <trip id="307" depart="1084.38" from="3o" to="1o"/>
    <trip id="308" depart="1087.91" from="2o" to="1i"/>
    <trip id="309" depart="1091.45" from="3o" to="51i"/>
    <trip id="310" depart="1094.98" from="2i" to="4i"/>
    <trip id="311" depart="1098.51" from="4o" to="2o"/>
    <trip id="312" depart="1102.04" from="1o" to="2o"/>
    <trip id="313" depart="1105.58" from="3o" to="4i"/>
    <trip id="314" depart="1109.11" from="2i" to="3i"/>
    <trip id="315" depart="1112.64" from="4i" to="3o"/>
    <trip id="316" depart="1116.17" from="2i" to="3o"/>
    <trip id="317" depart="1119.70" from="1i" to="1i"/>
    <trip id="318" depart="1123.24" from="4o" to="1i"/>
    <trip id="319" depart="1126.77" from="1o" to="3i"/>
    <trip id="320" depart="1130.30" from="3i" to="3i"/>
    <trip id="321" depart="1133.83" from="1o" to="1i"/>
    <trip id="322" depart="1137.36" from="4i" to="4o"/>
    <trip id="323" depart="1140.90" from="1o" to="3o"/>
    <trip id="324" depart="1144.43" from="4i" to="3i"/>
    <trip id="325" depart="1147.96" from="4i" to="3o"/>
    <trip id="326" depart="1151.49" from="2o" to="2i"/>
    <trip id="327" depart="1155.03" from="2i" to="4i"/>
    <trip id="328" depart="1158.56" from="1o" to="4o"/>
    <trip id="329" depart="1162.09" from="1o" to="3i"/>
    <trip id="330" depart="1165.62" from="1i" to="4o"/>
    <trip id="331" depart="1169.15" from="1o" to="3o"/>
    <trip id="332" depart="1172.69" from="4o" to="1i"/>
    <trip id="333" depart="1176.22" from="3i" to="4i"/>
    <trip id="334" depart="1179.75" from="3i" to="4o"/>
    <trip id="335" depart="1183.28" from="2i" to="4i"/>
    <trip id="336" depart="1186.82" from="1o" to="4o"/>
    <trip id="337" depart="1190.35" from="54o" to="3o"/>
    <trip id="338" depart="1193.88" from="4o" to="2i"/>
    <trip id="339" depart="1197.41" from="2i" to="4i"/>
    <trip id="340" depart="1200.94" from="3o" to="4i"/>
    <trip id="341" depart="1204.48" from="2i" to="2o"/>
    <trip id="342" depart="1208.01" from="4o" to="3o"/>
    <trip id="343" depart="1211.54" from="2o" to="1o"/>
    <trip id="344" depart="1215.07" from="3o" to="1i"/>
    <trip id="345" depart="1218.61" from="3i" to="2o"/>
    <trip id="346" depart="1222.14" from="3o" to="51i"/>
    <trip id="347" depart="1225.67" from="3o" to="3i"/>
    <trip id="348" depart="1229.20" from="3i" to="1o"/>
    <trip id="349" depart="1232.73" from="2i" to="2i"/>
    <trip id="350" depart="1236.27" from="3o" to="3i"/>
    <trip id="351" depart="1239.80" from="2o" to="1i"/>
    <trip id="352" depart="1243.33" from="1o" to="2i"/>
    <trip id="353" depart="1246.86" from="4i" to="3i"/>
    <trip id="354" depart="1250.39" from="3i" to="1o"/>
    <trip id="355" depart="1253.93" from="2i" to="4i"/>
    <trip id="356" depart="1257.46" from="3o" to="1o"/>
    <trip id="357" depart="1260.99" from="1i" to="3o"/>
    <trip id="358" depart="1264.52" from="3i" to="4o"/>
    <trip id="359" depart="1268.06" from="2i" to="1o"/>
    <trip id="360" depart="1271.59" from="4o" to="4o"/>
    <trip id="361" depart="1275.12" from="2o" to="3i"/>
    <trip id="362" depart="1278.65" from="2o" to="4o"/>
    <trip id="363" depart="1282.18" from="1o" to="2i"/>
    <trip id="364" depart="1285.72" from="52o" to="4i"/>
    <trip id="365" depart="1289.25" from="1o" to="1o"/>
    <trip id="366" depart="1292.78" from="1i" to="1o"/>
    <trip id="367" depart="1296.31" from="4o" to="3i"/>
    <trip id="368" depart="1299.85" from="2i" to="2i"/>
    <trip id="369" depart="1303.38" from="4o" to="3i"/>
    <trip id="370" depart="1306.91" from="1i" to="1o"/>
    <trip id="371" depart="1310.44" from="1i" to="2o"/>
    <trip id="372" depart="1313.97" from="4i" to="1o"/>
    <trip id="373" depart="1317.51" from="1o" to="4o"/>
    <trip id="374" depart="1321.04" from="3o" to="53i"/>
    <trip id="375" depart="1324.57" from="4i" to="2o"/>
    <trip id="376" depart="1328.10" from="1o" to="3o"/>
    <trip id="377" depart="1331.64" from="3o" to="1o"/>
    <trip id="378" depart="1335.17" from="51o" to="4o"/>
    <trip id="379" depart="1338.70" from="1o" to="2o"/>
    <trip id="380" depart="1342.23" from="2o" to="1o"/>
    <trip id="381" depart="1345.76" from="2i" to="1i"/>
    <trip id="382" depart="1349.30" from="4i" to="3o"/>
    <trip id="383" depart="1352.83" from="3o" to="1o"/>
    <trip id="384" depart="1356.36" from="2o" to="4i"/>
    <trip id="385" depart="1359.89" from="1i" to="3o"/>
    <trip id="386" depart="1363.42" from="3o" to="3o"/>
    <trip id="387" depart="1366.96" from="4i" to="4o"/>
    <trip id="388" depart="1370.49" from="1o" to="1i"/>
    <trip id="389" depart="1374.02" from="3i" to="4o"/>
    <trip id="390" depart="1377.55" from="1o" to="2o"/>
    <trip id="391" depart="1381.09" from="4o" to="1i"/>
    <trip id="392" depart="1384.62" from="3o" to="54i"/>
    <trip id="393" depart="1388.15" from="2o" to="1o"/>
    <trip id="394" depart="1391.68" from="1i" to="3o"/>
    <trip id="395" depart="1395.21" from="1i" to="1i"/>
    <trip id="396" depart="1398.75" from="1i" to="1i"/>
    <trip id="397" depart="1402.28" from="2i" to="2i"/>
    <trip id="398" depart="1405.81" from="52o" to="2o"/>
    <trip id="399" depart="1409.34" from="1i" to="4o"/>
    <trip id="400" depart="1412.88" from="4i" to="1o"/>
    <trip id="401" depart="1416.41" from="3o" to="1i"/>
    <trip id="402" depart="1419.94" from="4o" to="3o"/>
    <trip id="403" depart="1423.47" from="1i" to="4o"/>
    <trip id="404" depart="1427.00" from="1i" to="2o"/>
    <trip id="405" depart="1430.54" from="3o" to="1i"/>
    <trip id="406" depart="1434.07" from="2i" to="1o"/>
    <trip id="407" depart="1437.60" from="2o" to="4i"/>
    <trip id="408" depart="1441.13" from="2o" to="4i"/>
    <trip id="409" depart="1444.67" from="3i" to="1o"/>
    <trip id="410" depart="1448.20" from="2i" to="4i"/>
    <trip id="411" depart="1451.73" from="1o" to="3i"/>
    <trip id="412" depart="1455.26" from="1i" to="4o"/>
    <trip id="413" depart="1458.79" from="4o" to="2o"/>
    <trip id="414" depart="1462.33" from="3i" to="3i"/>
    <trip id="415" depart="1465.86" from="51o" to="3o"/>
    <trip id="416" depart="1469.39" from="3i" to="3i"/>
    <trip id="417" depart="1472.92" from="1o" to="3o"/>
    <trip id="418" depart="1476.45" from="3i" to="52i"/>
    <trip id="419" depart="1479.99" from="4o" to="2i"/>
    <trip id="420" depart="1483.52" from="53o" to="2i"/>
    <trip id="421" depart="1487.05" from="2o" to="1i"/>
    <trip id="422" depart="1490.58" from="2o" to="4o"/>
    <trip id="423" depart="1494.12" from="2o" to="3i"/>
    <trip id="424" depart="1497.65" from="3i" to="4i"/>
    <trip id="425" depart="1501.18" from="1i" to="1o"/>
    <trip id="426" depart="1504.71" from="2i" to="4i"/>
    <trip id="427" depart="1508.24" from="1o" to="2i"/>
    <trip id="428" depart="1511.78" from="1o" to="2i"/>
    <trip id="429" depart="1515.31" from="1i" to="1i"/>
    <trip id="430" depart="1518.84" from="2i" to="3o"/>
    <trip id="431" depart="1522.37" from="3i" to="2o"/>
    <trip id="432" depart="1525.91" from="4o" to="1o"/>
    <trip id="433" depart="1529.44" from="3i" to="2o"/>
    <trip id="434" depart="1532.97" from="1o" to="4o"/>
    <trip id="435" depart="1536.50" from="2i" to="3o"/>
    <trip id="436" depart="1540.03" from="4o" to="3i"/>
    <trip id="437" depart="1543.57" from="1i" to="4o"/>
    <trip id="438" depart="1547.10" from="4o" to="3o"/>
    <trip id="439" depart="1550.63" from="3i" to="52i"/>
    <trip id="440" depart="1554.16" from="1i" to="1i"/>
    <trip id="441" depart="1557.70" from="2i" to="4i"/>
    <trip id="442" depart="1561.23" from="4i" to="2i"/>
    <trip id="443" depart="1564.76" from="2i" to="1o"/>
    <trip id="444" depart="1568.29" from="4o" to="4o"/>
    <trip id="445" depart="1571.82" from="1i" to="4i"/>
    <trip id="446" depart="1575.36" from="4o" to="4o"/>
    <trip id="447" depart="1578.89" from="1i" to="1i"/>
    <trip id="448" depart="1582.42" from="3i" to="2i"/>
    <trip id="449" depart="1585.95" from="1o" to="2i"/>
    <trip id="450" depart="1589.48" from="3o" to="2o"/>
    <trip id="451" depart="1593.02" from="1i" to="2i"/>
    <trip id="452" depart="1596.55" from="2i" to="3o"/>
    <trip id="453" depart="1600.08" from="1i" to="1o"/>
    <trip id="454" depart="1603.61" from="1o" to="52i"/>
    <trip id="455" depart="1607.15" from="4o" to="4i"/>
    <trip id="456" depart="1610.68" from="4i" to="1i"/>
    <trip id="457" depart="1614.21" from="1o" to="2i"/>
    <trip id="458" depart="1617.74" from="2i" to="1i"/>
    <trip id="459" depart="1621.27" from="1o" to="2i"/>
    <trip id="460" depart="1624.81" from="1i" to="4i"/>
    <trip id="461" depart="1628.34" from="3i" to="53i"/>
    <trip id="462" depart="1631.87" from="54o" to="4o"/>
    <trip id="463" depart="1635.40" from="2i" to="1o"/>
    <trip id="464" depart="1638.94" from="1o" to="3o"/>
    <trip id="465" depart="1642.47" from="1i" to="1o"/>
    <trip id="466" depart="1646.00" from="1i" to="2i"/>
    <trip id="467" depart="1649.53" from="2o" to="2o"/>
    <trip id="468" depart="1653.06" from="4i" to="3o"/>
    <trip id="469" depart="1656.60" from="3o" to="2i"/>
    <trip id="470" depart="1660.13" from="2o" to="2o"/>
    <trip id="471" depart="1663.66" from="4o" to="4o"/>
    <trip id="472" depart="1667.19" from="4i" to="3o"/>
    <trip id="473" depart="1670.73" from="4i" to="2o"/>
    <trip id="474" depart="1674.26" from="1o" to="2o"/>
    <trip id="475" depart="1677.79" from="1o" to="4o"/>
    <trip id="476" depart="1681.32" from="2i" to="4o"/>
    <trip id="477" depart="1684.85" from="4o" to="2o"/>
    <trip id="478" depart="1688.39" from="3i" to="2i"/>
    <trip id="479" depart="1691.92" from="1i" to="1o"/>
    <trip id="480" depart="1695.45" from="1o" to="53i"/>
    <trip id="481" depart="1698.98" from="2o" to="2i"/>
    <trip id="482" depart="1702.52" from="1i" to="2o"/>
    <trip id="483" depart="1706.05" from="1i" to="4o"/>
    <trip id="484" depart="1709.58" from="4o" to="3i"/>
    <trip id="485" depart="1713.11" from="3o" to="1i"/>
    <trip id="486" depart="1716.64" from="4i" to="4i"/>
    <trip id="487" depart="1720.18" from="2i" to="2i"/>
    <trip id="488" depart="1723.71" from="3o" to="1o"/>
    <trip id="489" depart="1727.24" from="1o" to="1i"/>
    <trip id="490" depart="1730.77" from="2o" to="1o"/>
    <trip id="491" depart="1734.30" from="4i" to="4o"/>
    <trip id="492" depart="1737.84" from="2i" to="3o"/>
    <trip id="493" depart="1741.37" from="1o" to="4i"/>
    <trip id="494" depart="1744.90" from="2i" to="2o"/>
    <trip id="495" depart="1748.43" from="3o" to="3o"/>
    <trip id="496" depart="1751.97" from="2i" to="4i"/>
    <trip id="497" depart="1755.50" from="3i" to="1o"/>
    <trip id="498" depart="1759.03" from="1o" to="2i"/>
    <trip id="499" depart="1762.56" from="1i" to="4o"/>
    <trip id="500" depart="1766.09" from="2o" to="4o"/>
    <trip id="501" depart="1769.63" from="3i" to="4i"/>
    <trip id="502" depart="1773.16" from="2o" to="4i"/>
    <trip id="503" depart="1776.69" from="1i" to="54i"/>
    <trip id="504" depart="1780.22" from="1o" to="4o"/>
    <trip id="505" depart="1783.76" from="3o" to="2i"/>
    <trip id="506" depart="1787.29" from="4i" to="51i"/>
    <trip id="507" depart="1790.82" from="1i" to="3o"/>
    <trip id="508" depart="1794.35" from="4o" to="3o"/>
    <trip id="509" depart="1797.88" from="1i" to="1i"/>
    <trip id="510" depart="1801.42" from="1o" to="4i"/>
    <trip id="511" depart="1804.95" from="1o" to="4i"/>
    <trip id="512" depart="1808.48" from="1o" to="2o"/>
    <trip id="513" depart="1812.01" from="4i" to="2o"/>
    <trip id="514" depart="1815.55" from="3i" to="4i"/>
    <trip id="515" depart="1819.08" from="4i" to="3o"/>
    <trip id="516" depart="1822.61" from="2o" to="3o"/>
    <trip id="517" depart="1826.14" from="2i" to="4o"/>
    <trip id="518" depart="1829.67" from="3i" to="3i"/>
    <trip id="519" depart="1833.21" from="2o" to="1i"/>
    <trip id="520" depart="1836.74" from="1o" to="3o"/>
    <trip id="521" depart="1840.27" from="4i" to="1i"/>
    <trip id="522" depart="1843.80" from="4i" to="1i"/>
    <trip id="523" depart="1847.33" from="53o" to="2i"/>
    <trip id="524" depart="1850.87" from="4o" to="4o"/>
    <trip id="525" depart="1854.40" from="2i" to="1i"/>
    <trip id="526" depart="1857.93" from="1o" to="3o"/>
    <trip id="527" depart="1861.46" from="52o" to="3o"/>
    <trip id="528" depart="1865.00" from="1o" to="1i"/>
    <trip id="529" depart="1868.53" from="3o" to="3o"/>
    <trip id="530" depart="1872.06" from="1o" to="2o"/>
    <trip id="531" depart="1875.59" from="2o" to="2i"/>
    <trip id="532" depart="1879.12" from="3o" to="2o"/>
    <trip id="533" depart="1882.66" from="2i" to="2o"/>
    <trip id="534" depart="1886.19" from="3i" to="1o"/>
    <trip id="535" depart="1889.72" from="3i" to="3i"/>
    <trip id="536" depart="1893.25" from="53o" to="2i"/>