<?xml version="1.0" encoding="UTF-8"?>

<!-- generated on Tue Apr 27 23:54:53 2021 by Eclipse SUMO netedit Version c200fae3
<configuration xmlns:xsi="http://www.w3.org/2001/XMLSchema-instance" xsi:noNamespaceSchemaLocation="http://sumo.dlr.de/xsd/netconvertConfiguration.xsd">

    <output>
        <output-file value="/Users/aramansary/Desktop/sumos/multiple_intersection.net.xml"/>
    </output>

    <processing>
        <offset.disable-normalization value="true"/>
    </processing>

    <junctions>
        <no-turnarounds value="true"/>
    </junctions>

    <report>
        <aggregate-warnings value="5"/>
    </report>

</configuration>
-->

<net version="1.6" junctionCornerDetail="5" limitTurnSpeed="5.50" xmlns:xsi="http://www.w3.org/2001/XMLSchema-instance" xsi:noNamespaceSchemaLocation="http://sumo.dlr.de/xsd/net_file.xsd">

    <location netOffset="0.00,0.00" convBoundary="-100.00,-100.00,200.00,200.00" origBoundary="10000000000.00,10000000000.00,-10000000000.00,-10000000000.00" projParameter="!"/>

    <edge id=":gneJ0_0" function="internal">
        <lane id=":gneJ0_0_0" index="0" speed="6.51" length="9.03" shape="7.20,8.00 4.75,8.35 3.00,9.40 1.95,11.15 1.60,13.60"/>
    </edge>
    <edge id=":gneJ0_1" function="internal">
        <lane id=":gneJ0_1_0" index="0" speed="13.89" length="11.20" shape="7.20,8.00 -4.00,8.00"/>
        <lane id=":gneJ0_1_1" index="1" speed="13.89" length="11.20" shape="7.20,4.80 -4.00,4.80"/>
        <lane id=":gneJ0_1_2" index="2" speed="13.89" length="11.20" shape="7.20,1.60 -4.00,1.60"/>
    </edge>
    <edge id=":gneJ0_4" function="internal">
        <lane id=":gneJ0_4_0" index="0" speed="6.51" length="9.03" shape="1.60,-13.60 1.95,-11.15 3.00,-9.40 4.75,-8.35 7.20,-8.00"/>
    </edge>
    <edge id=":gneJ0_5" function="internal">
        <lane id=":gneJ0_5_0" index="0" speed="13.89" length="27.20" shape="1.60,-13.60 1.60,13.60"/>
    </edge>
    <edge id=":gneJ0_6" function="internal">
        <lane id=":gneJ0_6_0" index="0" speed="9.51" length="20.48" shape="1.60,-13.60 1.25,-5.55 0.20,0.20 -1.55,3.65 -4.00,4.80"/>
    </edge>
    <edge id=":gneJ0_7" function="internal">
        <lane id=":gneJ0_7_0" index="0" speed="8.83" length="17.50" shape="1.60,-13.60 1.25,-6.95 0.20,-2.20 -1.55,0.65 -4.00,1.60"/>
    </edge>
    <edge id=":gneJ0_8" function="internal">
        <lane id=":gneJ0_8_0" index="0" speed="13.89" length="11.20" shape="-4.00,-8.00 7.20,-8.00"/>
        <lane id=":gneJ0_8_1" index="1" speed="13.89" length="11.20" shape="-4.00,-4.80 7.20,-4.80"/>
        <lane id=":gneJ0_8_2" index="2" speed="13.89" length="11.20" shape="-4.00,-1.60 7.20,-1.60"/>
    </edge>
    <edge id=":gneJ0_11" function="internal">
        <lane id=":gneJ0_11_0" index="0" speed="8.83" length="3.39" shape="-4.00,-1.60 -1.55,-0.65 -1.15,0.00"/>
    </edge>
    <edge id=":gneJ0_12" function="internal">
        <lane id=":gneJ0_12_0" index="0" speed="8.83" length="14.11" shape="-1.15,0.00 0.20,2.20 1.25,6.95 1.60,13.60"/>
    </edge>
    <edge id=":gneJ1_0" function="internal">
        <lane id=":gneJ1_0_0" index="0" speed="6.51" length="9.03" shape="98.40,13.60 98.05,11.15 97.00,9.40 95.25,8.35 92.80,8.00"/>
    </edge>
    <edge id=":gneJ1_1" function="internal">
        <lane id=":gneJ1_1_0" index="0" speed="13.89" length="27.20" shape="98.40,13.60 98.40,-13.60"/>
    </edge>
    <edge id=":gneJ1_2" function="internal">
        <lane id=":gneJ1_2_0" index="0" speed="9.32" length="19.63" shape="98.40,13.60 98.95,6.95 100.60,2.20 103.35,-0.65 107.20,-1.60"/>
    </edge>
    <edge id=":gneJ1_3" function="internal">
        <lane id=":gneJ1_3_0" index="0" speed="8.10" length="14.57" shape="107.20,1.60 104.75,2.35 103.00,4.60 101.95,8.35 101.60,13.60"/>
    </edge>
    <edge id=":gneJ1_4" function="internal">
        <lane id=":gneJ1_4_0" index="0" speed="13.89" length="14.83" shape="107.20,1.60 103.88,2.10 100.89,3.20 97.46,4.30 92.80,4.80"/>
    </edge>
    <edge id=":gneJ1_5" function="internal">
        <lane id=":gneJ1_5_0" index="0" speed="9.32" length="6.64" shape="107.20,1.60 103.35,0.65 101.49,-1.27"/>
    </edge>
    <edge id=":gneJ1_12" function="internal">
        <lane id=":gneJ1_12_0" index="0" speed="9.32" length="12.99" shape="101.49,-1.27 100.60,-2.20 98.95,-6.95 98.40,-13.60"/>
    </edge>
    <edge id=":gneJ1_6" function="internal">
        <lane id=":gneJ1_6_0" index="0" speed="8.10" length="14.57" shape="101.60,-13.60 101.95,-8.35 103.00,-4.60 104.75,-2.35 107.20,-1.60"/>
    </edge>
    <edge id=":gneJ1_7" function="internal">
        <lane id=":gneJ1_7_0" index="0" speed="13.89" length="27.20" shape="101.60,-13.60 101.60,13.60"/>
    </edge>
    <edge id=":gneJ1_8" function="internal">
        <lane id=":gneJ1_8_0" index="0" speed="9.32" length="19.63" shape="101.60,-13.60 101.05,-6.95 99.40,-2.20 96.65,0.65 92.80,1.60"/>
    </edge>
    <edge id=":gneJ1_9" function="internal">
        <lane id=":gneJ1_9_0" index="0" speed="6.51" length="9.03" shape="92.80,-8.00 95.25,-8.35 97.00,-9.40 98.05,-11.15 98.40,-13.60"/>
    </edge>
    <edge id=":gneJ1_10" function="internal">
        <lane id=":gneJ1_10_0" index="0" speed="13.89" length="14.83" shape="92.80,-4.80 97.46,-4.30 100.89,-3.20 103.88,-2.10 107.20,-1.60"/>
    </edge>
    <edge id=":gneJ1_11" function="internal">
        <lane id=":gneJ1_11_0" index="0" speed="9.32" length="7.71" shape="92.80,-1.60 96.65,-0.65 99.25,2.05"/>
    </edge>
    <edge id=":gneJ1_13" function="internal">
        <lane id=":gneJ1_13_0" index="0" speed="9.32" length="11.92" shape="99.25,2.05 99.40,2.20 101.05,6.95 101.60,13.60"/>
    </edge>
    <edge id=":gneJ10_0" function="internal">
        <lane id=":gneJ10_0_0" index="0" speed="13.89" length="14.40" shape="-101.60,110.40 -101.60,96.00"/>
    </edge>
    <edge id=":gneJ10_1" function="internal">
        <lane id=":gneJ10_1_0" index="0" speed="6.51" length="9.03" shape="-92.80,104.80 -95.25,105.15 -97.00,106.20 -98.05,107.95 -98.40,110.40"/>
    </edge>
    <edge id=":gneJ10_2" function="internal">
        <lane id=":gneJ10_2_0" index="0" speed="7.33" length="11.73" shape="-92.80,101.60 -96.65,101.25 -99.40,100.20 -101.05,98.45 -101.60,96.00"/>
    </edge>
    <edge id=":gneJ11_0" function="internal">
        <lane id=":gneJ11_0_0" index="0" speed="6.51" length="9.03" shape="-101.60,-96.00 -101.25,-98.45 -100.20,-100.20 -98.45,-101.25 -96.00,-101.60"/>
    </edge>
    <edge id=":gneJ12_0" function="internal">
        <lane id=":gneJ12_0_0" index="0" speed="13.89" length="11.20" shape="-4.00,-101.60 7.20,-101.60"/>
    </edge>
    <edge id=":gneJ12_1" function="internal">
        <lane id=":gneJ12_1_0" index="0" speed="6.51" length="9.03" shape="-4.00,-101.60 -1.55,-101.25 0.20,-100.20 1.25,-98.45 1.60,-96.00"/>
    </edge>
    <edge id=":gneJ13_0" function="internal">
        <lane id=":gneJ13_0_0" index="0" speed="13.89" length="27.20" shape="113.60,201.60 86.40,201.60"/>
    </edge>
    <edge id=":gneJ13_1" function="internal">
        <lane id=":gneJ13_1_0" index="0" speed="9.94" length="22.48" shape="113.60,201.60 105.55,201.05 99.80,199.40 96.35,196.65 95.20,192.80"/>
    </edge>
    <edge id=":gneJ13_2" function="internal">
        <lane id=":gneJ13_2_0" index="0" speed="9.32" length="19.63" shape="113.60,201.60 106.95,201.05 102.20,199.40 99.35,196.65 98.40,192.80"/>
    </edge>
    <edge id=":gneJ13_3" function="internal">
        <lane id=":gneJ13_3_0" index="0" speed="6.51" length="9.03" shape="108.00,192.80 108.35,195.25 109.40,197.00 111.15,198.05 113.60,198.40"/>
    </edge>
    <edge id=":gneJ13_4" function="internal">
        <lane id=":gneJ13_4_0" index="0" speed="9.32" length="19.63" shape="101.60,192.80 100.65,196.65 97.80,199.40 93.05,201.05 86.40,201.60"/>
    </edge>
    <edge id=":gneJ13_5" function="internal">
        <lane id=":gneJ13_5_0" index="0" speed="6.51" length="9.03" shape="86.40,198.40 88.85,198.05 90.60,197.00 91.65,195.25 92.00,192.80"/>
    </edge>
    <edge id=":gneJ13_6" function="internal">
        <lane id=":gneJ13_6_0" index="0" speed="13.89" length="27.20" shape="86.40,198.40 113.60,198.40"/>
    </edge>
    <edge id=":gneJ14_0" function="internal">
        <lane id=":gneJ14_0_0" index="0" speed="6.08" length="7.76" shape="201.60,195.30 201.41,198.06 200.82,200.03 199.86,201.21 198.50,201.60"/>
    </edge>
    <edge id=":gneJ15_0" function="internal">
        <lane id=":gneJ15_0_0" index="0" speed="13.89" length="9.22" shape="4.00,201.60 1.36,202.60 0.05,204.80 -1.29,207.00 -4.00,208.00"/>
        <lane id=":gneJ15_0_1" index="1" speed="13.89" length="9.22" shape="4.00,201.60 1.54,202.10 -0.00,203.20 -1.54,204.30 -4.00,204.80"/>
        <lane id=":gneJ15_0_2" index="2" speed="13.89" length="9.22" shape="4.00,201.60 -4.00,201.60"/>
    </edge>
    <edge id=":gneJ16_0" function="internal">
        <lane id=":gneJ16_0_0" index="0" speed="7.64" length="12.84" shape="-95.30,208.00 -98.06,207.41 -100.03,205.62 -101.21,202.66 -101.60,198.50"/>
    </edge>
    <edge id=":gneJ2_0" function="internal">
        <lane id=":gneJ2_0_0" index="0" speed="13.89" length="18.95" shape="92.00,104.00 93.00,98.00 95.20,93.56 97.40,89.94 98.40,86.40"/>
    </edge>
    <edge id=":gneJ2_1" function="internal">
        <lane id=":gneJ2_1_0" index="0" speed="8.83" length="1.69" shape="98.40,104.00 99.01,102.42"/>
    </edge>
    <edge id=":gneJ2_8" function="internal">
        <lane id=":gneJ2_8_0" index="0" speed="8.83" length="15.80" shape="99.01,102.42 99.35,101.55 102.20,99.80 106.95,98.75 113.60,98.40"/>
    </edge>
    <edge id=":gneJ2_2" function="internal">
        <lane id=":gneJ2_2_0" index="0" speed="9.26" length="19.35" shape="101.60,86.40 102.35,91.65 104.60,95.40 108.35,97.65 113.60,98.40"/>
    </edge>
    <edge id=":gneJ2_3" function="internal">
        <lane id=":gneJ2_3_0" index="0" speed="13.89" length="18.95" shape="101.60,86.40 102.60,89.94 104.80,93.56 107.00,98.00 108.00,104.00"/>
    </edge>
    <edge id=":gneJ2_4" function="internal">
        <lane id=":gneJ2_4_0" index="0" speed="8.10" length="14.57" shape="86.40,92.00 91.65,91.65 95.40,90.60 97.65,88.85 98.40,86.40"/>
    </edge>
    <edge id=":gneJ2_5" function="internal">
        <lane id=":gneJ2_5_0" index="0" speed="13.89" length="28.08" shape="86.40,92.00 95.84,93.00 103.36,95.20 109.21,97.40 113.60,98.40"/>
    </edge>
    <edge id=":gneJ2_6" function="internal">
        <lane id=":gneJ2_6_0" index="0" speed="9.94" length="22.48" shape="86.40,95.20 94.45,95.75 100.20,97.40 103.65,100.15 104.80,104.00"/>
    </edge>
    <edge id=":gneJ2_7" function="internal">
        <lane id=":gneJ2_7_0" index="0" speed="8.83" length="17.50" shape="86.40,98.40 93.05,98.75 97.80,99.80 100.65,101.55 101.60,104.00"/>
    </edge>
    <edge id=":gneJ3_0" function="internal">
        <lane id=":gneJ3_0_0" index="0" speed="8.67" length="16.85" shape="98.40,-89.60 98.95,-94.85 100.60,-98.60 103.35,-100.85 107.20,-101.60"/>
    </edge>
    <edge id=":gneJ3_1" function="internal">
        <lane id=":gneJ3_1_0" index="0" speed="6.51" length="9.03" shape="107.20,-95.20 104.75,-94.85 103.00,-93.80 101.95,-92.05 101.60,-89.60"/>
    </edge>
    <edge id=":gneJ3_2" function="internal">
        <lane id=":gneJ3_2_0" index="0" speed="13.89" length="14.83" shape="92.80,-101.60 96.12,-102.10 99.11,-103.20 102.54,-104.30 107.20,-104.80"/>
    </edge>
    <edge id=":gneJ3_3" function="internal">
        <lane id=":gneJ3_3_0" index="0" speed="8.67" length="12.59" shape="92.80,-101.60 96.65,-100.85 99.40,-98.60 101.05,-94.85 101.16,-93.84"/>
    </edge>
    <edge id=":gneJ3_4" function="internal">
        <lane id=":gneJ3_4_0" index="0" speed="8.67" length="4.26" shape="101.16,-93.84 101.60,-89.60"/>
    </edge>
    <edge id=":gneJ4_0" function="internal">
        <lane id=":gneJ4_0_0" index="0" speed="7.33" length="11.73" shape="198.40,7.20 197.85,4.75 196.20,3.00 193.45,1.95 189.60,1.60"/>
    </edge>
    <edge id=":gneJ4_1" function="internal">
        <lane id=":gneJ4_1_0" index="0" speed="13.89" length="14.40" shape="198.40,7.20 198.40,-7.20"/>
    </edge>
    <edge id=":gneJ4_2" function="internal">
        <lane id=":gneJ4_2_0" index="0" speed="13.89" length="14.83" shape="204.80,-7.20 204.30,-2.54 203.20,0.89 202.10,3.88 201.60,7.20"/>
    </edge>
    <edge id=":gneJ4_3" function="internal">
        <lane id=":gneJ4_3_0" index="0" speed="8.67" length="5.26" shape="201.60,-7.20 200.85,-3.35 200.00,-2.31"/>
    </edge>
    <edge id=":gneJ4_6" function="internal">
        <lane id=":gneJ4_6_0" index="0" speed="8.67" length="11.59" shape="200.00,-2.31 198.60,-0.60 194.85,1.05 189.60,1.60"/>
    </edge>
    <edge id=":gneJ4_4" function="internal">
        <lane id=":gneJ4_4_0" index="0" speed="6.51" length="9.03" shape="189.60,-1.60 192.05,-1.95 193.80,-3.00 194.85,-4.75 195.20,-7.20"/>
    </edge>
    <edge id=":gneJ4_5" function="internal">
        <lane id=":gneJ4_5_0" index="0" speed="8.67" length="16.85" shape="189.60,-1.60 194.85,-1.05 198.60,0.60 200.85,3.35 201.60,7.20"/>
    </edge>
    <edge id=":gneJ5_0" function="internal">
        <lane id=":gneJ5_0_0" index="0" speed="13.89" length="11.20" shape="201.60,92.80 201.60,104.00"/>
    </edge>
    <edge id=":gneJ5_1" function="internal">
        <lane id=":gneJ5_1_0" index="0" speed="6.51" length="9.03" shape="192.80,98.40 195.25,98.05 197.00,97.00 198.05,95.25 198.40,92.80"/>
    </edge>
    <edge id=":gneJ5_2" function="internal">
        <lane id=":gneJ5_2_0" index="0" speed="7.33" length="7.68" shape="192.80,98.40 196.65,98.75 199.40,99.80 200.00,100.44"/>
    </edge>
    <edge id=":gneJ5_3" function="internal">
        <lane id=":gneJ5_3_0" index="0" speed="7.33" length="4.04" shape="200.00,100.44 201.05,101.55 201.60,104.00"/>
    </edge>
    <edge id=":gneJ6_0" function="internal">
        <lane id=":gneJ6_0_0" index="0" speed="3.90" length="2.58" shape="195.20,-93.60 195.10,-94.30 194.80,-94.80 194.30,-95.10 193.60,-95.20"/>
    </edge>
    <edge id=":gneJ6_1" function="internal">
        <lane id=":gneJ6_1_0" index="0" speed="6.08" length="7.74" shape="198.40,-93.60 198.10,-95.70 197.20,-97.20 195.70,-98.10 193.60,-98.40"/>
    </edge>
    <edge id=":gneJ6_2" function="internal">
        <lane id=":gneJ6_2_0" index="0" speed="8.96" length="18.06" shape="193.60,-104.80 198.50,-104.10 202.00,-102.00 204.10,-98.50 204.80,-93.60"/>
    </edge>
    <edge id=":gneJ6_3" function="internal">
        <lane id=":gneJ6_3_0" index="0" speed="7.66" length="12.90" shape="193.60,-101.60 197.10,-101.10 199.60,-99.60 201.10,-97.10 201.60,-93.60"/>
    </edge>
    <edge id=":gneJ7_0" function="internal">
        <lane id=":gneJ7_0_0" index="0" speed="6.51" length="9.03" shape="1.60,86.40 1.95,88.85 3.00,90.60 4.75,91.65 7.20,92.00"/>
    </edge>
    <edge id=":gneJ7_1" function="internal">
        <lane id=":gneJ7_1_0" index="0" speed="7.33" length="11.73" shape="1.60,86.40 1.95,90.25 3.00,93.00 4.75,94.65 7.20,95.20"/>
    </edge>
    <edge id=":gneJ7_2" function="internal">
        <lane id=":gneJ7_2_0" index="0" speed="8.10" length="14.57" shape="1.60,86.40 1.95,91.65 3.00,95.40 4.75,97.65 7.20,98.40"/>
    </edge>
    <edge id=":gneJ7_3" function="internal">
        <lane id=":gneJ7_3_0" index="0" speed="9.51" length="20.48" shape="1.60,86.40 1.25,94.45 0.20,100.20 -1.55,103.65 -4.00,104.80"/>
    </edge>
    <edge id=":gneJ7_4" function="internal">
        <lane id=":gneJ7_4_0" index="0" speed="8.83" length="17.50" shape="1.60,86.40 1.25,93.05 0.20,97.80 -1.55,100.65 -4.00,101.60"/>
    </edge>
    <edge id=":gneJ9_0" function="internal">
        <lane id=":gneJ9_0_0" index="0" speed="13.89" length="22.47" shape="-101.60,11.10 -102.10,6.93 -103.20,1.88 -104.30,-4.12 -104.80,-11.10"/>
    </edge>
    <edge id=":gneJ9_1" function="internal">
        <lane id=":gneJ9_1_0" index="0" speed="9.38" length="19.87" shape="-101.60,11.10 -101.41,2.74 -100.82,-3.23 -99.86,-6.81 -98.50,-8.00"/>
    </edge>
    <edge id=":gneJ9_2" function="internal">
        <lane id=":gneJ9_2_0" index="0" speed="8.65" length="16.78" shape="-101.60,11.10 -101.41,4.14 -100.82,-0.83 -99.86,-3.81 -98.50,-4.80"/>
    </edge>
    <edge id=":gneJ9_3" function="internal">
        <lane id=":gneJ9_3_0" index="0" speed="7.88" length="13.71" shape="-101.60,11.10 -101.41,5.54 -100.82,1.57 -99.86,-0.81 -98.50,-1.60"/>
    </edge>
    <edge id=":gneJ9_4" function="internal">
        <lane id=":gneJ9_4_0" index="0" speed="9.74" length="21.54" shape="-98.50,8.00 -101.26,6.81 -103.23,3.23 -104.41,-2.74 -104.80,-11.10"/>
    </edge>
    <edge id=":gneJ9_5" function="internal">
        <lane id=":gneJ9_5_0" index="0" speed="8.65" length="16.78" shape="-98.50,4.80 -99.86,3.81 -100.82,0.83 -101.41,-4.14 -101.60,-11.10"/>
    </edge>

    <edge id="gneE0" from="gneJ0" to="gneJ1" priority="-1">
        <lane id="gneE0_0" index="0" speed="13.89" length="85.60" shape="7.20,-8.00 92.80,-8.00"/>
        <lane id="gneE0_1" index="1" speed="13.89" length="85.60" shape="7.20,-4.80 92.80,-4.80"/>
        <lane id="gneE0_2" index="2" speed="13.89" length="85.60" shape="7.20,-1.60 92.80,-1.60"/>
    </edge>
    <edge id="gneE1" from="gneJ1" to="gneJ0" priority="-1">
        <lane id="gneE1_0" index="0" speed="13.89" length="85.60" shape="92.80,8.00 7.20,8.00"/>
        <lane id="gneE1_1" index="1" speed="13.89" length="85.60" shape="92.80,4.80 7.20,4.80"/>
        <lane id="gneE1_2" index="2" speed="13.89" length="85.60" shape="92.80,1.60 7.20,1.60"/>
    </edge>
    <edge id="gneE10" from="gneJ6" to="gneJ4" priority="-1">
        <lane id="gneE10_0" index="0" speed="13.89" length="86.40" shape="204.80,-93.60 204.80,-7.20"/>
        <lane id="gneE10_1" index="1" speed="13.89" length="86.40" shape="201.60,-93.60 201.60,-7.20"/>
    </edge>
    <edge id="gneE11" from="gneJ4" to="gneJ6" priority="-1">
        <lane id="gneE11_0" index="0" speed="13.89" length="86.40" shape="195.20,-7.20 195.20,-93.60"/>
        <lane id="gneE11_1" index="1" speed="13.89" length="86.40" shape="198.40,-7.20 198.40,-93.60"/>
    </edge>
    <edge id="gneE14" from="gneJ0" to="gneJ9" priority="-1">
        <lane id="gneE14_0" index="0" speed="13.89" length="94.50" shape="-4.00,8.00 -98.50,8.00"/>
        <lane id="gneE14_1" index="1" speed="13.89" length="94.50" shape="-4.00,4.80 -98.50,4.80"/>
        <lane id="gneE14_2" index="2" speed="13.89" length="94.50" shape="-4.00,1.60 -98.50,1.60"/>
    </edge>
    <edge id="gneE15" from="gneJ10" to="gneJ9" priority="-1">
        <lane id="gneE15_0" index="0" speed="13.89" length="84.90" shape="-101.60,96.00 -101.60,11.10"/>
    </edge>
    <edge id="gneE16" from="gneJ9" to="gneJ11" priority="-1">
        <lane id="gneE16_0" index="0" speed="13.89" length="84.90" shape="-104.80,-11.10 -104.80,-96.00"/>
        <lane id="gneE16_1" index="1" speed="13.89" length="84.90" shape="-101.60,-11.10 -101.60,-96.00"/>
    </edge>
    <edge id="gneE17" from="gneJ9" to="gneJ0" priority="-1">
        <lane id="gneE17_0" index="0" speed="13.89" length="94.50" shape="-98.50,-8.00 -4.00,-8.00"/>
        <lane id="gneE17_1" index="1" speed="13.89" length="94.50" shape="-98.50,-4.80 -4.00,-4.80"/>
        <lane id="gneE17_2" index="2" speed="13.89" length="94.50" shape="-98.50,-1.60 -4.00,-1.60"/>
    </edge>
    <edge id="gneE18" from="gneJ12" to="gneJ0" priority="-1">
        <lane id="gneE18_0" index="0" speed="13.89" length="82.40" shape="1.60,-96.00 1.60,-13.60"/>
    </edge>
    <edge id="gneE19" from="gneJ13" to="gneJ2" priority="-1">
        <lane id="gneE19_0" index="0" speed="13.89" length="88.80" shape="92.00,192.80 92.00,104.00"/>
        <lane id="gneE19_1" index="1" speed="13.89" length="88.80" shape="95.20,192.80 95.20,104.00"/>
        <lane id="gneE19_2" index="2" speed="13.89" length="88.80" shape="98.40,192.80 98.40,104.00"/>
    </edge>
    <edge id="gneE2" from="gneJ1" to="gneJ2" priority="-1">
        <lane id="gneE2_0" index="0" speed="13.89" length="72.80" shape="101.60,13.60 101.60,86.40"/>
    </edge>
    <edge id="gneE20" from="gneJ2" to="gneJ13" priority="-1">
        <lane id="gneE20_0" index="0" speed="13.89" length="88.80" shape="108.00,104.00 108.00,192.80"/>
        <lane id="gneE20_1" index="1" speed="13.89" length="88.80" shape="104.80,104.00 104.80,192.80"/>
        <lane id="gneE20_2" index="2" speed="13.89" length="88.80" shape="101.60,104.00 101.60,192.80"/>
    </edge>
    <edge id="gneE21" from="gneJ7" to="gneJ2" priority="-1">
        <lane id="gneE21_0" index="0" speed="13.89" length="79.20" shape="7.20,92.00 86.40,92.00"/>
        <lane id="gneE21_1" index="1" speed="13.89" length="79.20" shape="7.20,95.20 86.40,95.20"/>
        <lane id="gneE21_2" index="2" speed="13.89" length="79.20" shape="7.20,98.40 86.40,98.40"/>
    </edge>
    <edge id="gneE22" from="gneJ2" to="gneJ5" priority="-1">
        <lane id="gneE22_0" index="0" speed="13.89" length="79.20" shape="113.60,98.40 192.80,98.40"/>
    </edge>
    <edge id="gneE23" from="gneJ5" to="gneJ14" priority="-1">
        <lane id="gneE23_0" index="0" speed="13.89" length="91.30" shape="201.60,104.00 201.60,195.30"/>
    </edge>
    <edge id="gneE24" from="gneJ14" to="gneJ13" priority="-1">
        <lane id="gneE24_0" index="0" speed="13.89" length="84.90" shape="198.50,201.60 113.60,201.60"/>
    </edge>
    <edge id="gneE25" from="gneJ13" to="gneJ15" priority="-1">
        <lane id="gneE25_0" index="0" speed="13.89" length="82.40" shape="86.40,201.60 4.00,201.60"/>
    </edge>
    <edge id="gneE26" from="gneJ15" to="gneJ13" priority="-1">
        <lane id="gneE26_0" index="0" speed="13.89" length="82.40" shape="4.00,198.40 86.40,198.40"/>
    </edge>
    <edge id="gneE27" from="gneJ13" to="gneJ14" priority="-1">
        <lane id="gneE27_0" index="0" speed="13.89" length="84.90" shape="113.60,198.40 198.50,198.40"/>
    </edge>
    <edge id="gneE28" from="gneJ15" to="gneJ16" priority="-1">
        <lane id="gneE28_0" index="0" speed="13.89" length="91.30" shape="-4.00,208.00 -95.30,208.00"/>
        <lane id="gneE28_1" index="1" speed="13.89" length="91.30" shape="-4.00,204.80 -95.30,204.80"/>
        <lane id="gneE28_2" index="2" speed="13.89" length="91.30" shape="-4.00,201.60 -95.30,201.60"/>
    </edge>
    <edge id="gneE29" from="gneJ16" to="gneJ10" priority="-1">
        <lane id="gneE29_0" index="0" speed="13.89" length="88.10" shape="-101.60,198.50 -101.60,110.40"/>
    </edge>
    <edge id="gneE3" from="gneJ2" to="gneJ1" priority="-1">
        <lane id="gneE3_0" index="0" speed="13.89" length="72.80" shape="98.40,86.40 98.40,13.60"/>
    </edge>
    <edge id="gneE30" from="gneJ10" to="gneJ16" priority="-1">
        <lane id="gneE30_0" index="0" speed="13.89" length="88.10" shape="-98.40,110.40 -98.40,198.50"/>
    </edge>
    <edge id="gneE31" from="gneJ11" to="gneJ12" priority="-1">
        <lane id="gneE31_0" index="0" speed="13.89" length="92.00" shape="-96.00,-101.60 -4.00,-101.60"/>
    </edge>
    <edge id="gneE32" from="gneJ7" to="gneJ10" priority="-1">
        <lane id="gneE32_0" index="0" speed="13.89" length="88.80" shape="-4.00,104.80 -92.80,104.80"/>
        <lane id="gneE32_1" index="1" speed="13.89" length="88.80" shape="-4.00,101.60 -92.80,101.60"/>
    </edge>
    <edge id="gneE33" from="gneJ0" to="gneJ7" priority="-1">
        <lane id="gneE33_0" index="0" speed="13.89" length="72.80" shape="1.60,13.60 1.60,86.40"/>
    </edge>
    <edge id="gneE34" from="gneJ12" to="gneJ3" priority="-1">
        <lane id="gneE34_0" index="0" speed="13.89" length="85.60" shape="7.20,-101.60 92.80,-101.60"/>
    </edge>
    <edge id="gneE35" from="gneJ3" to="gneJ6" priority="-1">
        <lane id="gneE35_0" index="0" speed="13.89" length="86.40" shape="107.20,-104.80 193.60,-104.80"/>
        <lane id="gneE35_1" index="1" speed="13.89" length="86.40" shape="107.20,-101.60 193.60,-101.60"/>
    </edge>
    <edge id="gneE36" from="gneJ6" to="gneJ3" priority="-1">
        <lane id="gneE36_0" index="0" speed="13.89" length="86.40" shape="193.60,-95.20 107.20,-95.20"/>
        <lane id="gneE36_1" index="1" speed="13.89" length="86.40" shape="193.60,-98.40 107.20,-98.40"/>
    </edge>
    <edge id="gneE4" from="gneJ1" to="gneJ3" priority="-1">
        <lane id="gneE4_0" index="0" speed="13.89" length="76.00" shape="98.40,-13.60 98.40,-89.60"/>
    </edge>
    <edge id="gneE5" from="gneJ3" to="gneJ1" priority="-1">
        <lane id="gneE5_0" index="0" speed="13.89" length="76.00" shape="101.60,-89.60 101.60,-13.60"/>
    </edge>
    <edge id="gneE6" from="gneJ1" to="gneJ4" priority="-1">
        <lane id="gneE6_0" index="0" speed="13.89" length="82.40" shape="107.20,-1.60 189.60,-1.60"/>
    </edge>
    <edge id="gneE7" from="gneJ4" to="gneJ1" priority="-1">
        <lane id="gneE7_0" index="0" speed="13.89" length="82.40" shape="189.60,1.60 107.20,1.60"/>
    </edge>
    <edge id="gneE8" from="gneJ4" to="gneJ5" priority="-1">
        <lane id="gneE8_0" index="0" speed="13.89" length="85.60" shape="201.60,7.20 201.60,92.80"/>
    </edge>
    <edge id="gneE9" from="gneJ5" to="gneJ4" priority="-1">
        <lane id="gneE9_0" index="0" speed="13.89" length="85.60" shape="198.40,92.80 198.40,7.20"/>
    </edge>

    <junction id="gneJ0" type="priority" x="0.00" y="0.00" incLanes="gneE1_0 gneE1_1 gneE1_2 gneE18_0 gneE17_0 gneE17_1 gneE17_2" intLanes=":gneJ0_0_0 :gneJ0_1_0 :gneJ0_1_1 :gneJ0_1_2 :gneJ0_4_0 :gneJ0_5_0 :gneJ0_6_0 :gneJ0_7_0 :gneJ0_8_0 :gneJ0_8_1 :gneJ0_8_2 :gneJ0_12_0" shape="0.00,13.60 3.20,13.60 3.64,11.38 4.20,10.60 4.98,10.04 5.98,9.71 7.20,9.60 7.20,-9.60 4.98,-10.04 4.20,-10.60 3.64,-11.38 3.31,-12.38 3.20,-13.60 0.00,-13.60 -0.44,-11.38 -1.00,-10.60 -1.78,-10.04 -2.78,-9.71 -4.00,-9.60 -4.00,9.60 -1.78,10.04 -1.00,10.60 -0.44,11.38 -0.11,12.38">
        <request index="0"  response="000000000000" foes="100000100000" cont="0"/>
        <request index="1"  response="000000000000" foes="100011100000" cont="0"/>
        <request index="2"  response="000000000000" foes="100011100000" cont="0"/>
        <request index="3"  response="000000000000" foes="100011100000" cont="0"/>
        <request index="4"  response="011100000000" foes="011100000000" cont="0"/>
        <request index="5"  response="111100001111" foes="111100001111" cont="0"/>
        <request index="6"  response="111100001110" foes="111100001110" cont="0"/>
        <request index="7"  response="111100001110" foes="111100001110" cont="0"/>
        <request index="8"  response="000000000000" foes="000011110000" cont="0"/>
        <request index="9"  response="000000000000" foes="000011110000" cont="0"/>
        <request index="10" response="000000000000" foes="000011110000" cont="0"/>
        <request index="11" response="000000001111" foes="000011101111" cont="1"/>
    </junction>
    <junction id="gneJ1" type="priority" x="100.00" y="0.00" incLanes="gneE3_0 gneE7_0 gneE5_0 gneE0_0 gneE0_1 gneE0_2" intLanes=":gneJ1_0_0 :gneJ1_1_0 :gneJ1_2_0 :gneJ1_3_0 :gneJ1_4_0 :gneJ1_12_0 :gneJ1_6_0 :gneJ1_7_0 :gneJ1_8_0 :gneJ1_9_0 :gneJ1_10_0 :gneJ1_13_0" shape="96.80,13.60 103.20,13.60 103.31,10.42 103.64,7.82 104.20,5.80 104.98,4.36 105.98,3.49 107.20,3.20 107.20,-3.20 104.98,-4.36 104.20,-5.80 103.64,-7.82 103.31,-10.42 103.20,-13.60 96.80,-13.60 96.36,-11.38 95.80,-10.60 95.02,-10.04 94.02,-9.71 92.80,-9.60 92.80,9.60 95.02,10.04 95.80,10.60 96.36,11.38 96.69,12.38">
        <request index="0"  response="000000000000" foes="000000000000" cont="0"/>
        <request index="1"  response="111000110000" foes="111100110000" cont="0"/>
        <request index="2"  response="110011110000" foes="110011110000" cont="0"/>
        <request index="3"  response="000000000000" foes="100010000000" cont="0"/>
        <request index="4"  response="000000000000" foes="100010000110" cont="0"/>
        <request index="5"  response="011000000000" foes="011110000110" cont="1"/>
        <request index="6"  response="010000000000" foes="010000000100" cont="0"/>
        <request index="7"  response="110000111000" foes="110000111100" cont="0"/>
        <request index="8"  response="110000100010" foes="110000100010" cont="0"/>
        <request index="9"  response="000000000000" foes="000000100010" cont="0"/>
        <request index="10" response="000000000000" foes="000111100110" cont="0"/>
        <request index="11" response="000000011000" foes="000110011110" cont="1"/>
    </junction>
    <junction id="gneJ10" type="priority" x="-100.00" y="100.00" incLanes="gneE29_0 gneE32_0 gneE32_1" intLanes=":gneJ10_0_0 :gneJ10_1_0 :gneJ10_2_0" shape="-103.20,110.40 -96.80,110.40 -96.36,108.18 -95.80,107.40 -95.02,106.84 -94.02,106.51 -92.80,106.40 -92.80,100.00 -95.00,99.89 -96.80,99.56 -98.20,99.00 -99.20,98.22 -99.80,97.22 -100.00,96.00 -103.20,96.00">
        <request index="0" response="100" foes="100" cont="0"/>
        <request index="1" response="000" foes="000" cont="0"/>
        <request index="2" response="000" foes="001" cont="0"/>
    </junction>
    <junction id="gneJ11" type="priority" x="-100.00" y="-100.00" incLanes="gneE16_0 gneE16_1" intLanes=":gneJ11_0_0" shape="-106.40,-96.00 -100.00,-96.00 -99.56,-98.22 -99.00,-99.00 -98.22,-99.56 -97.22,-99.89 -96.00,-100.00 -96.00,-103.20 -99.18,-103.00 -101.78,-102.40 -103.80,-101.40 -105.24,-100.00 -106.11,-98.20">
        <request index="0" response="0" foes="0" cont="0"/>
    </junction>
    <junction id="gneJ12" type="priority" x="0.00" y="-100.00" incLanes="gneE31_0" intLanes=":gneJ12_0_0 :gneJ12_1_0" shape="0.00,-96.00 3.20,-96.00 3.64,-98.22 4.20,-99.00 4.98,-99.56 5.98,-99.89 7.20,-100.00 7.20,-103.20 -4.00,-103.20 -4.00,-100.00 -1.78,-99.56 -1.00,-99.00 -0.44,-98.22 -0.11,-97.22">
        <request index="0" response="00" foes="00" cont="0"/>
        <request index="1" response="00" foes="00" cont="0"/>
    </junction>