<?xml version="1.0" encoding="UTF-8"?>

<!-- generated on Tue Dec 22 03:34:18 2020 by Eclipse SUMO duarouter Version 1.6.0
<configuration xmlns:xsi="http://www.w3.org/2001/XMLSchema-instance" xsi:noNamespaceSchemaLocation="http://sumo.dlr.de/xsd/duarouterConfiguration.xsd">

    <input>
        <net-file value="configs/two_inter/two_inter.net.xml"/>
        <route-files value="configs/two_inter/trips.trips.xml"/>
    </input>

    <output>
        <output-file value="configs/two_inter/traffic.rou.xml"/>
        <alternatives-output value="configs/two_inter/traffic.rou.alt.xml"/>
    </output>

    <time>
        <begin value="0"/>
        <end value="2520"/>
    </time>

    <report>
        <no-warnings value="true"/>
        <ignore-errors value="true"/>
        <no-step-log value="true"/>
    </report>

</configuration>
-->

<routes xmlns:xsi="http://www.w3.org/2001/XMLSchema-instance" xsi:noNamespaceSchemaLocation="http://sumo.dlr.de/xsd/routes_file.xsd">
    <vehicle id="0" depart="0.00">
        <route edges="gneE1 e5 e12 gneE12 e10"/>
    </vehicle>
    <vehicle id="1" depart="5.61">
        <route edges="e8 gneE11 e14 e13 gneE7 gneE9 e3 e12 gneE12"/>
    </vehicle>
    <vehicle id="2" depart="11.22">
        <route edges="gneE4 gneE6 e7 gneE2"/>
    </vehicle>
    <vehicle id="3" depart="16.84">
        <route edges="e9 gneE3 gneE5 gneE1 e5 e6 gneE10"/>
    </vehicle>
    <vehicle id="4" depart="22.45">
        <route edges="gneE7 gneE9 e3 e12 gneE12 e10"/>
    </vehicle>
    <vehicle id="5" depart="28.06">
        <route edges="gneE8 e11 e2 e9"/>
    </vehicle>
    <vehicle id="6" depart="33.67">
        <route edges="gneE7 gneE9 e3"/>
    </vehicle>
    <vehicle id="7" depart="39.29">
        <route edges="e12"/>
    </vehicle>
    <vehicle id="8" depart="44.90">
        <route edges="gneE5 gneE1 e5 e12 gneE12 e10 gneE2 gneE4"/>
    </vehicle>
    <vehicle id="9" depart="50.51">
        <route edges="e11 e6"/>
    </vehicle>
    <vehicle id="10" depart="56.12">
        <route edges="gneE11 e14 e13 gneE7 gneE9 e3"/>
    </vehicle>
    <vehicle id="11" depart="61.74">
        <route edges="gneE7 gneE9 e3 e2 gneE2 gneE4 gneE6"/>
    </vehicle>
    <vehicle id="12" depart="67.35">
        <route edges="gneE6 e7 gneE2"/>
    </vehicle>
    <vehicle id="13" depart="72.96">
        <route edges="gneE12"/>
    </vehicle>
    <vehicle id="14" depart="78.57">
        <route edges="e10 e9 gneE3"/>
    </vehicle>
    <vehicle id="15" depart="84.19">
        <route edges="gneE5 gneE1 e8"/>
    </vehicle>
    <vehicle id="16" depart="89.80">
        <route edges="e11 e12 gneE12 e10"/>
    </vehicle>
    <vehicle id="17" depart="95.41">
        <route edges="gneE1 e5 e12 gneE12 e10 gneE2 gneE4 gneE6 e7"/>
    </vehicle>
    <vehicle id="18" depart="101.02">
        <route edges="gneE1 e8 gneE11"/>
    </vehicle>
    <vehicle id="19" depart="106.64">
        <route edges="gneE2 gneE4 gneE6 e7 e5 e13"/>
    </vehicle>
    <vehicle id="20" depart="112.25">
        <route edges="gneE6 e7 e5 e13 gneE7 gneE9"/>
    </vehicle>
    <vehicle id="21" depart="117.86">
        <route edges="gneE10 gneE8 e11 e12 gneE12 e10 e5 e13 gneE7"/>
    </vehicle>
    <vehicle id="22" depart="123.47">
        <route edges="e8"/>
    </vehicle>
    <vehicle id="23" depart="129.09">
        <route edges="e9 gneE3 gneE5 gneE1 e5 e13 gneE7 gneE9 e3"/>
    </vehicle>
    <vehicle id="24" depart="134.70">
        <route edges="e2 e8 gneE11 e14 e13 gneE7 gneE9 e3"/>
    </vehicle>
    <vehicle id="25" depart="140.31">
        <route edges="gneE10 gneE8 e11 e12 gneE12 e10 e5"/>
    </vehicle>
    <vehicle id="26" depart="145.92">
        <route edges="gneE3 gneE5 gneE1 e5 e12 gneE12 e10"/>
    </vehicle>
    <vehicle id="27" depart="151.54">
        <route edges="gneE6 e7 e5 e13"/>
    </vehicle>
    <vehicle id="28" depart="157.15">
        <route edges="gneE1 e9"/>
    </vehicle>
    <vehicle id="29" depart="162.76">
        <route edges="e6 gneE10 gneE8 e11 e2 gneE2 gneE4 gneE6 e7"/>
    </vehicle>
    <vehicle id="30" depart="168.37">
        <route edges="gneE5 gneE1"/>
    </vehicle>
    <vehicle id="31" depart="173.99">
        <route edges="gneE1 e9 gneE3 gneE5"/>
    </vehicle>
    <vehicle id="32" depart="179.60">
        <route edges="gneE7 gneE9 e3 e2 e8 gneE11 e14"/>
    </vehicle>
    <vehicle id="33" depart="185.21">
        <route edges="gneE6 e7 e5 e13 gneE7 gneE9 e3"/>
    </vehicle>
    <vehicle id="34" depart="190.82">
        <route edges="e12 gneE12 e10 e5"/>
    </vehicle>
    <vehicle id="35" depart="196.44">
        <route edges="e5"/>
    </vehicle>
    <vehicle id="36" depart="202.05">
        <route edges="e5 e6 gneE10"/>
    </vehicle>
    <vehicle id="37" depart="207.66">
        <route edges="gneE6 e7 e5 e12 gneE12 e10 e9 gneE3 gneE5 gneE1"/>
    </vehicle>
    <vehicle id="38" depart="213.27">
        <route edges="gneE12 e10 e5 e6 gneE10 gneE8"/>
    </vehicle>
    <vehicle id="39" depart="218.89">
        <route edges="gneE8 e11 e12 gneE12 e10 e5 e13 gneE7"/>
    </vehicle>
    <vehicle id="40" depart="224.50">
        <route edges="e12 gneE12 e10"/>
    </vehicle>
    <vehicle id="41" depart="230.11">
        <route edges="gneE4 gneE6 e7 e5 e13 gneE7 gneE9 e3"/>
    </vehicle>
    <vehicle id="42" depart="235.72">
        <route edges="gneE3 gneE5 gneE1 e5 e12"/>
    </vehicle>
    <vehicle id="43" depart="241.34">
        <route edges="e10 e9 gneE3 gneE5 gneE1"/>
    </vehicle>
    <vehicle id="44" depart="246.95">
        <route edges="e9 gneE3 gneE5 gneE1"/>
    </vehicle>
    <vehicle id="45" depart="252.56">
        <route edges="gneE7 gneE9 e3 e2 gneE2"/>
    </vehicle>
    <vehicle id="46" depart="258.17">
        <route edges="e2 gneE2 gneE4 gneE6"/>
    </vehicle>
    <vehicle id="47" depart="263.79">
        <route edges="gneE11 e14 e13 gneE7 gneE9"/>
    </vehicle>
    <vehicle id="48" depart="269.40">
        <route edges="e13 gneE7 gneE9 e3 e2"/>
    </vehicle>
    <vehicle id="49" depart="275.01">
        <route edges="e10 gneE2 gneE4 gneE6 e7 e8"/>
    </vehicle>
    <vehicle id="50" depart="280.62">
        <route edges="e5 e13 gneE7 gneE9 e3 e2"/>
    </vehicle>
    <vehicle id="51" depart="286.24">
        <route edges="e10 gneE2 gneE4 gneE6 e7"/>
    </vehicle>
    <vehicle id="52" depart="291.85">
        <route edges="gneE1 e8 gneE11 e14"/>
    </vehicle>
    <vehicle id="53" depart="297.46">
        <route edges="gneE11"/>
    </vehicle>
    <vehicle id="54" depart="303.07">
        <route edges="gneE8 e11 e2 gneE2 gneE4 gneE6"/>
    </vehicle>
    <vehicle id="55" depart="308.69">
        <route edges="gneE1"/>
    </vehicle>
    <vehicle id="56" depart="314.30">
        <route edges="e13 gneE7 gneE9 e3 e2 e8 gneE11 e14"/>
    </vehicle>
    <vehicle id="57" depart="319.91">
        <route edges="gneE10 gneE8 e11 e2 e9"/>
    </vehicle>
    <vehicle id="58" depart="325.52">
        <route edges="e11 e12 gneE12 e10 e5 e13 gneE7 gneE9 e3"/>
    </vehicle>
    <vehicle id="59" depart="331.14">
        <route edges="e14 e6 gneE10"/>
    </vehicle>
    <vehicle id="60" depart="336.75">
        <route edges="gneE8 e11 e12 gneE12 e10"/>
    </vehicle>
    <vehicle id="61" depart="342.36">
        <route edges="gneE8 e11 e2 gneE2 gneE4 gneE6 e7"/>
    </vehicle>
    <vehicle id="62" depart="347.97">
        <route edges="e11 e12 gneE12"/>
    </vehicle>
    <vehicle id="63" depart="353.59">
        <route edges="gneE2 gneE4 gneE6"/>
    </vehicle>
    <vehicle id="64" depart="359.20">
        <route edges="e7 e5 e6"/>
    </vehicle>
    <vehicle id="65" depart="364.81">
        <route edges="gneE12 e10 gneE2 gneE4 gneE6 e7"/>
    </vehicle>
    <vehicle id="66" depart="370.42">
        <route edges="e13 gneE7 gneE9 e3 e2 gneE2 gneE4"/>
    </vehicle>
    <vehicle id="67" depart="376.04">
        <route edges="e14 e2 e9 gneE3 gneE5"/>
    </vehicle>
    <vehicle id="68" depart="381.65">
        <route edges="e14 e2 e9 gneE3 gneE5"/>
    </vehicle>
    <vehicle id="69" depart="387.26">
        <route edges="e7 e5 e12 gneE12 e10"/>
    </vehicle>
    <vehicle id="70" depart="392.87">
        <route edges="gneE2 gneE4 gneE6 e7 e5 e13 gneE7"/>
    </vehicle>
    <vehicle id="71" depart="398.49">
        <route edges="e9 gneE3 gneE5 gneE1 e5 e13 gneE7 gneE9 e3"/>
    </vehicle>
    <vehicle id="72" depart="404.10">
        <route edges="e6 gneE10 gneE8 e11 e2 e9 gneE3 gneE5"/>
    </vehicle>
    <vehicle id="73" depart="409.71">
        <route edges="e2 gneE2 gneE4 gneE6 e7 e5 e12 gneE12 e10"/>
    </vehicle>
    <vehicle id="74" depart="415.32">
        <route edges="e8 gneE11 e14 e13 gneE7 gneE9 e3"/>
    </vehicle>
    <vehicle id="75" depart="420.94">
        <route edges="e8 gneE11 e14 e13 gneE7 gneE9 e3"/>
    </vehicle>
    <vehicle id="76" depart="426.55">
        <route edges="gneE10"/>
    </vehicle>
    <vehicle id="77" depart="432.16">
        <route edges="e6 gneE10 gneE8 e11"/>
    </vehicle>
    <vehicle id="78" depart="437.77">
        <route edges="gneE10 gneE8 e11 e12 gneE12"/>
    </vehicle>
    <vehicle id="79" depart="443.39">
        <route edges="gneE12 e10 e5"/>
    </vehicle>
    <vehicle id="80" depart="449.00">
        <route edges="gneE5 gneE1 e8 gneE11 e14 e2"/>
    </vehicle>
    <vehicle id="81" depart="454.61">
        <route edges="e11 e6 gneE10 gneE8"/>
    </vehicle>
    <vehicle id="82" depart="460.22">
        <route edges="gneE9 e3 e13"/>
    </vehicle>
    <vehicle id="83" depart="465.84">
        <route edges="e10 e5 e13 gneE7 gneE9"/>
    </vehicle>
    <vehicle id="84" depart="471.45">
        <route edges="e3 e2 e9 gneE3 gneE5 gneE1"/>
    </vehicle>
    <vehicle id="85" depart="477.06">
        <route edges="gneE4"/>
    </vehicle>
    <vehicle id="86" depart="482.67">
        <route edges="gneE6 e7 e5 e6 gneE10 gneE8 e11"/>
    </vehicle>
    <vehicle id="87" depart="488.29">
        <route edges="e12 gneE12 e10"/>
    </vehicle>
    <vehicle id="88" depart="493.90">
        <route edges="e8 gneE11 e14"/>
    </vehicle>
    <vehicle id="89" depart="499.51">
        <route edges="e12 gneE12 e10 e9 gneE3 gneE5"/>
    </vehicle>
    <vehicle id="90" depart="505.12">
        <route edges="e6 gneE10 gneE8 e11 e2 e9 gneE3 gneE5 gneE1"/>
    </vehicle>
    <vehicle id="91" depart="510.73">
        <route edges="e9 gneE3 gneE5 gneE1 e8 gneE11 e14"/>
    </vehicle>
    <vehicle id="92" depart="516.35">
        <route edges="gneE12 e10 gneE2 gneE4 gneE6 e7"/>
    </vehicle>
    <vehicle id="93" depart="521.96">
        <route edges="e9 gneE3 gneE5 gneE1 e5 e6 gneE10"/>
    </vehicle>
    <vehicle id="94" depart="527.57">
        <route edges="gneE7 gneE9 e3 e2 e9 gneE3 gneE5 gneE1"/>
    </vehicle>
    <vehicle id="95" depart="533.18">
        <route edges="gneE2"/>
    </vehicle>
    <vehicle id="96" depart="538.80">
        <route edges="e6 gneE10 gneE8 e11 e2 gneE2"/>
    </vehicle>
    <vehicle id="97" depart="544.41">
        <route edges="e7 e5 e13 gneE7 gneE9"/>
    </vehicle>
    <vehicle id="98" depart="550.02">
        <route edges="e2 e8 gneE11 e14 e13 gneE7"/>
    </vehicle>
    <vehicle id="99" depart="555.63">
        <route edges="gneE5 gneE1 e8 gneE11"/>
    </vehicle>
    <vehicle id="100" depart="561.25">
        <route edges="e8 gneE11 e14 e2 gneE2 gneE4"/>
    </vehicle>
    <vehicle id="101" depart="566.86">
        <route edges="e14 e2 e9"/>
    </vehicle>
    <vehicle id="102" depart="572.47">
        <route edges="gneE12 e10 e5 e13 gneE7 gneE9 e3"/>
    </vehicle>
    <vehicle id="103" depart="578.08">
        <route edges="gneE6"/>
    </vehicle>
    <vehicle id="104" depart="583.70">
        <route edges="gneE10 gneE8 e11 e12 gneE12"/>
    </vehicle>
    <vehicle id="105" depart="589.31">
        <route edges="e11 e2 e8 gneE11 e14"/>
    </vehicle>
    <vehicle id="106" depart="594.92">
        <route edges="e12 gneE12"/>
    </vehicle>
    <vehicle id="107" depart="600.53">
        <route edges="e5 e13 gneE7 gneE9 e3 e2 e8 gneE11"/>
    </vehicle>
    <vehicle id="108" depart="606.15">
        <route edges="e7"/>
    </vehicle>
    <vehicle id="109" depart="611.76">
        <route edges="e5 e6 gneE10 gneE8"/>
    </vehicle>
    <vehicle id="110" depart="617.37">
        <route edges="gneE12 e10 e5 e13 gneE7 gneE9"/>
    </vehicle>
    <vehicle id="111" depart="622.98">
        <route edges="e11 e2 e9 gneE3"/>
    </vehicle>
    <vehicle id="112" depart="628.60">
        <route edges="gneE5 gneE1 e8 gneE11"/>
    </vehicle>
    <vehicle id="113" depart="634.21">
        <route edges="e2 gneE2 gneE4 gneE6 e7 e5 e12 gneE12"/>
    </vehicle>
    <vehicle id="114" depart="639.82">
        <route edges="gneE11 e14 e2 e9 gneE3 gneE5"/>
    </vehicle>
    <vehicle id="115" depart="645.43">
        <route edges="e3 e12 gneE12 e10 e5 e6 gneE10 gneE8 e11"/>
    </vehicle>
    <vehicle id="116" depart="651.05">
        <route edges="gneE6 e7 e5 e13 gneE7"/>
    </vehicle>
    <vehicle id="117" depart="656.66">
        <route edges="gneE8 e11 e12 gneE12 e10 e5 e13 gneE7 gneE9 e3"/>
    </vehicle>
    <vehicle id="118" depart="662.27">
        <route edges="e9 gneE3 gneE5 gneE1 e8 gneE11 e14 e2"/>
    </vehicle>
    <vehicle id="119" depart="667.88">
        <route edges="gneE6 e7 gneE2 gneE4"/>
    </vehicle>
    <vehicle id="120" depart="673.50">
        <route edges="gneE7"/>
    </vehicle>
    <vehicle id="121" depart="679.11">
        <route edges="gneE3 gneE5 gneE1 e5 e13 gneE7 gneE9"/>
    </vehicle>
    <vehicle id="122" depart="684.72">
        <route edges="e5 e13 gneE7 gneE9"/>
    </vehicle>
    <vehicle id="123" depart="690.33">
        <route edges="e8 gneE11 e14 e2 gneE2"/>
    </vehicle>
    <vehicle id="124" depart="695.95">
        <route edges="e10 e9 gneE3"/>
    </vehicle>
    <vehicle id="125" depart="701.56">
        <route edges="e3 e13 gneE7 gneE9"/>
    </vehicle>
    <vehicle id="126" depart="707.17">
        <route edges="gneE11 e14 e2"/>
    </vehicle>
    <vehicle id="127" depart="712.78">
        <route edges="e8 gneE11 e14 e2"/>
    </vehicle>
    <vehicle id="128" depart="718.40">
        <route edges="e11 e12 gneE12 e10 e5 e13 gneE7 gneE9"/>
    </vehicle>
    <vehicle id="129" depart="724.01">
        <route edges="gneE10 gneE8"/>
    </vehicle>
    <vehicle id="130" depart="729.62">
        <route edges="e3 e2 gneE2 gneE4 gneE6 e7"/>
    </vehicle>
    <vehicle id="131" depart="735.23">
        <route edges="gneE4 gneE6 e7 e8"/>
    </vehicle>
    <vehicle id="132" depart="740.85">
        <route edges="gneE6 e7 e8 gneE11 e14"/>
    </vehicle>
    <vehicle id="133" depart="746.46">
        <route edges="gneE2 gneE4 gneE6 e7 e5 e6 gneE10 gneE8"/>
    </vehicle>
    <vehicle id="134" depart="752.07">
        <route edges="gneE11 e14 e13"/>
    </vehicle>
    <vehicle id="135" depart="757.68">
        <route edges="gneE4 gneE6 e7 e5 e12"/>
    </vehicle>
    <vehicle id="136" depart="763.30">
        <route edges="e5 e13 gneE7 gneE9 e3"/>
    </vehicle>
    <vehicle id="137" depart="768.91">
        <route edges="e6 gneE10 gneE8 e11 e2"/>
    </vehicle>
    <vehicle id="138" depart="774.52">
        <route edges="gneE6 e7 e8 gneE11"/>
    </vehicle>
    <vehicle id="139" depart="780.13">
        <route edges="gneE1 e9 gneE3"/>
    </vehicle>
    <vehicle id="140" depart="785.75">
        <route edges="e2 e8"/>
    </vehicle>
    <vehicle id="141" depart="791.36">
        <route edges="e6"/>
    </vehicle>
    <vehicle id="142" depart="796.97">
        <route edges="gneE5 gneE1 e8 gneE11 e14 e2"/>
    </vehicle>
    <vehicle id="143" depart="802.58">
        <route edges="gneE8 e11 e2 gneE2 gneE4 gneE6 e7"/>
    </vehicle>
    <vehicle id="144" depart="808.20">
        <route edges="gneE9 e3"/>
    </vehicle>
    <vehicle id="145" depart="813.81">
        <route edges="gneE11 e14 e2 e8"/>
    </vehicle>
    <vehicle id="146" depart="819.42">
        <route edges="e2 gneE2"/>
    </vehicle>
    <vehicle id="147" depart="825.03">
        <route edges="gneE4 gneE6 e7 e8 gneE11 e14"/>
    </vehicle>
    <vehicle id="148" depart="830.65">
        <route edges="gneE12 e10 e5 e12"/>
    </vehicle>
    <vehicle id="149" depart="836.26">
        <route edges="e6 gneE10 gneE8 e11 e2 e9 gneE3 gneE5 gneE1"/>
    </vehicle>
    <vehicle id="150" depart="841.87">
        <route edges="e13 gneE7 gneE9 e3 e12 gneE12 e10 e5 e6 gneE10 gneE8 e11"/>
    </vehicle>
    <vehicle id="151" depart="847.48">
        <route edges="gneE7 gneE9 e3 e2 e8 gneE11"/>
    </vehicle>
    <vehicle id="152" depart="853.10">
        <route edges="e11 e12 gneE12"/>
    </vehicle>
    <vehicle id="153" depart="858.71">
        <route edges="gneE4 gneE6 e7 e8 gneE11 e14"/>
    </vehicle>
    <vehicle id="154" depart="864.32">
        <route edges="e3 e2 e8 gneE11"/>
    </vehicle>
    <vehicle id="155" depart="869.93">
        <route edges="e3 e12 gneE12"/>
    </vehicle>
    <vehicle id="156" depart="875.55">
        <route edges="gneE9 e3 e12 gneE12 e10 e5 e6 gneE10 gneE8"/>
    </vehicle>
    <vehicle id="157" depart="881.16">
        <route edges="e6 gneE10 gneE8 e11 e2 e9 gneE3 gneE5"/>
    </vehicle>
    <vehicle id="158" depart="886.77">
        <route edges="e12 gneE12 e10 gneE2 gneE4 gneE6 e7 e8"/>
    </vehicle>
    <vehicle id="159" depart="892.38">
        <route edges="gneE12 e10 gneE2 gneE4 gneE6"/>
    </vehicle>
    <vehicle id="160" depart="898.00">
        <route edges="e3 e12 gneE12 e10 e5 e6 gneE10"/>
    </vehicle>
    <vehicle id="161" depart="903.61">
        <route edges="e7 e5 e6 gneE10 gneE8 e11"/>
    </vehicle>
    <vehicle id="162" depart="909.22">
        <route edges="gneE4 gneE6 e7 e8 gneE11"/>
    </vehicle>
    <vehicle id="163" depart="914.83">
        <route edges="gneE4 gneE6 e7 e5 e12 gneE12 e10 e9 gneE3"/>
    </vehicle>
    <vehicle id="164" depart="920.45">
        <route edges="gneE2 gneE4 gneE6 e7 e5"/>
    </vehicle>
    <vehicle id="165" depart="926.06">
        <route edges="gneE1 e5 e12 gneE12"/>
    </vehicle>
    <vehicle id="166" depart="931.67">
        <route edges="gneE12 e10 e5 e13"/>
    </vehicle>
    <vehicle id="167" depart="937.28">
        <route edges="e12"/>
    </vehicle>
    <vehicle id="168" depart="942.90">
        <route edges="gneE7 gneE9 e3 e2 gneE2 gneE4 gneE6 e7"/>
    </vehicle>
    <vehicle id="169" depart="948.51">
        <route edges="gneE2 gneE4 gneE6 e7 e5 e13"/>
    </vehicle>
    <vehicle id="170" depart="954.12">
        <route edges="e8 gneE11 e14 e6 gneE10 gneE8"/>
    </vehicle>
    <vehicle id="171" depart="959.73">
        <route edges="gneE1 e5 e6 gneE10 gneE8 e11"/>
    </vehicle>
    <vehicle id="172" depart="965.35">
        <route edges="e3 e13"/>
    </vehicle>
    <vehicle id="173" depart="970.96">
        <route edges="gneE12 e10 e9"/>
    </vehicle>
    <vehicle id="174" depart="976.57">
        <route edges="e10 gneE2 gneE4"/>
    </vehicle>
    <vehicle id="175" depart="982.18">
        <route edges="gneE10 gneE8 e11 e2 gneE2 gneE4"/>
    </vehicle>
    <vehicle id="176" depart="987.80">
        <route edges="e12 gneE12 e10 gneE2 gneE4 gneE6 e7"/>
    </vehicle>
    <vehicle id="177" depart="993.41">
        <route edges="gneE6 e7 e5 e6 gneE10 gneE8"/>
    </vehicle>
    <vehicle id="178" depart="999.02">
        <route edges="e14 e2 e8 gneE11"/>
    </vehicle>
    <vehicle id="179" depart="1004.63">
        <route edges="e5 e13 gneE7"/>
    </vehicle>
    <vehicle id="180" depart="1010.24">
        <route edges="e13 gneE7 gneE9 e3 e2"/>
    </vehicle>
    <vehicle id="181" depart="1015.86">
        <route edges="e11 e2"/>
    </vehicle>
    <vehicle id="182" depart="1021.47">
        <route edges="e5 e12 gneE12 e10"/>
    </vehicle>
    <vehicle id="183" depart="1027.08">
        <route edges="gneE2"/>
    </vehicle>
    <vehicle id="184" depart="1032.69">
        <route edges="gneE9 e3 e2 gneE2 gneE4"/>
    </vehicle>
    <vehicle id="185" depart="1038.31">
        <route edges="gneE4 gneE6 e7 e5 e13 gneE7 gneE9"/>
    </vehicle>
    <vehicle id="186" depart="1043.92">
        <route edges="gneE9 e3 e12 gneE12 e10 e5 e6 gneE10 gneE8 e11"/>
    </vehicle>
    <vehicle id="187" depart="1049.53">
        <route edges="e14 e2 e9 gneE3 gneE5"/>
    </vehicle>
    <vehicle id="188" depart="1055.14">
        <route edges="gneE11 e14 e13 gneE7 gneE9 e3"/>
    </vehicle>
    <vehicle id="189" depart="1060.76">
        <route edges="e3 e13 gneE7 gneE9"/>
    </vehicle>
    <vehicle id="190" depart="1066.37">
        <route edges="gneE8 e11 e2 gneE2 gneE4 gneE6 e7"/>
    </vehicle>
    <vehicle id="191" depart="1071.98">
        <route edges="e6"/>
    </vehicle>
    <vehicle id="192" depart="1077.59">
        <route edges="gneE1 e5 e12"/>
    </vehicle>
    <vehicle id="193" depart="1083.21">
        <route edges="e8 gneE11 e14 e2 e9 gneE3"/>
    </vehicle>
    <vehicle id="194" depart="1088.82">
        <route edges="gneE11"/>
    </vehicle>
    <vehicle id="195" depart="1094.43">
        <route edges="e10 e5 e6 gneE10"/>
    </vehicle>
    <vehicle id="196" depart="1100.04">
        <route edges="e6 gneE10 gneE8 e11 e12 gneE12 e10 e5"/>
    </vehicle>
    <vehicle id="197" depart="1105.66">
        <route edges="gneE4 gneE6 e7 e5 e12 gneE12 e10 e9 gneE3"/>
    </vehicle>
    <vehicle id="198" depart="1111.27">
        <route edges="gneE3 gneE5 gneE1 e5 e12 gneE12 e10 gneE2 gneE4 gneE6"/>
    </vehicle>
    <vehicle id="199" depart="1116.88">
        <route edges="e11 e2 gneE2 gneE4"/>
    </vehicle>
    <vehicle id="200" depart="1122.49">
        <route edges="gneE10 gneE8 e11 e2 e9"/>
    </vehicle>
    <vehicle id="201" depart="1128.11">
        <route edges="e6 gneE10 gneE8 e11 e2"/>
    </vehicle>
    <vehicle id="202" depart="1133.72">
        <route edges="e7 gneE2"/>
    </vehicle>
    <vehicle id="203" depart="1139.33">
        <route edges="gneE9 e3 e2 e9 gneE3"/>
    </vehicle>
    <vehicle id="204" depart="1144.94">
        <route edges="e2 e9 gneE3"/>
    </vehicle>
    <vehicle id="205" depart="1150.56">
        <route edges="gneE5 gneE1 e8 gneE11 e14 e2"/>
    </vehicle>
    <vehicle id="206" depart="1156.17">
        <route edges="gneE11 e14 e6"/>
    </vehicle>
    <vehicle id="207" depart="1161.78">
        <route edges="gneE6 e7 e8"/>
    </vehicle>
    <vehicle id="208" depart="1167.39">
        <route edges="gneE7 gneE9"/>
    </vehicle>
    <vehicle id="209" depart="1173.01">
        <route edges="e2 e8 gneE11 e14 e13 gneE7"/>
    </vehicle>
    <vehicle id="210" depart="1178.62">
        <route edges="gneE2 gneE4 gneE6 e7 e8 gneE11 e14"/>
    </vehicle>
    <vehicle id="211" depart="1184.23">
        <route edges="e2 gneE2"/>
    </vehicle>
    <vehicle id="212" depart="1189.84">
        <route edges="gneE6 e7 e5 e12"/>
    </vehicle>
    <vehicle id="213" depart="1195.46">
        <route edges="e8 gneE11 e14 e2 e9"/>
    </vehicle>
    <vehicle id="214" depart="1201.07">
        <route edges="gneE2 gneE4 gneE6 e7 e5 e12 gneE12 e10"/>
    </vehicle>
    <vehicle id="215" depart="1206.68">
        <route edges="e9 gneE3 gneE5 gneE1 e5 e12 gneE12 e10 gneE2 gneE4"/>
    </vehicle>
    <vehicle id="216" depart="1212.29">
        <route edges="e10 e9 gneE3 gneE5"/>
    </vehicle>
    <vehicle id="217" depart="1217.91">
        <route edges="gneE1 e9"/>
    </vehicle>
    <vehicle id="218" depart="1223.52">
        <route edges="gneE4 gneE6 e7 e5 e13 gneE7 gneE9 e3"/>
    </vehicle>
    <vehicle id="219" depart="1229.13">
        <route edges="gneE5 gneE1 e5 e12 gneE12 e10"/>
    </vehicle>
    <vehicle id="220" depart="1234.74">
        <route edges="gneE6 e7 e5 e6 gneE10 gneE8 e11"/>
    </vehicle>
    <vehicle id="221" depart="1240.36">
        <route edges="gneE1 e5 e12 gneE12"/>
    </vehicle>
    <vehicle id="222" depart="1245.97">
        <route edges="e5 e13 gneE7 gneE9 e3 e2 e8"/>
    </vehicle>
    <vehicle id="223" depart="1251.58">
        <route edges="e8 gneE11 e14 e6 gneE10"/>
    </vehicle>
    <vehicle id="224" depart="1257.19">
        <route edges="gneE3"/>
    </vehicle>
    <vehicle id="225" depart="1262.81">
        <route edges="e7 e5 e6 gneE10 gneE8 e11"/>
    </vehicle>
    <vehicle id="226" depart="1268.42">
        <route edges="gneE8 e11 e2 e8 gneE11"/>
    </vehicle>
    <vehicle id="227" depart="1274.03">
        <route edges="e12 gneE12 e10 gneE2 gneE4 gneE6 e7"/>
    </vehicle>
    <vehicle id="228" depart="1279.64">
        <route edges="gneE11 e14 e13 gneE7 gneE9 e3 e12 gneE12"/>
    </vehicle>
    <vehicle id="229" depart="1285.26">
        <route edges="gneE5 gneE1 e8 gneE11 e14"/>
    </vehicle>
    <vehicle id="230" depart="1290.87">
        <route edges="gneE1 e5 e12 gneE12 e10 gneE2 gneE4 gneE6 e7"/>
    </vehicle>
    <vehicle id="231" depart="1296.48">
        <route edges="e5 e13 gneE7 gneE9 e3 e2 e8 gneE11"/>
    </vehicle>
    <vehicle id="232" depart="1302.09">
        <route edges="gneE1 e5 e12"/>
    </vehicle>
    <vehicle id="233" depart="1307.71">
        <route edges="gneE5 gneE1 e5 e13 gneE7 gneE9"/>
    </vehicle>
    <vehicle id="234" depart="1313.32">
        <route edges="gneE1 e5 e6 gneE10 gneE8 e11"/>
    </vehicle>
    <vehicle id="235" depart="1318.93">
        <route edges="e5 e12 gneE12 e10 e9"/>
    </vehicle>
    <vehicle id="236" depart="1324.54">
        <route edges="gneE6 e7 e5 e12 gneE12 e10 e9 gneE3 gneE5"/>
    </vehicle>
    <vehicle id="237" depart="1330.16">
        <route edges="e6 gneE10 gneE8 e11 e12 gneE12 e10 e5"/>
    </vehicle>
    <vehicle id="238" depart="1335.77">
        <route edges="gneE3"/>
    </vehicle>
    <vehicle id="239" depart="1341.38">
        <route edges="e13 gneE7 gneE9 e3 e12"/>
    </vehicle>
    <vehicle id="240" depart="1346.99">
        <route edges="e5 e13 gneE7 gneE9"/>
    </vehicle>
    <vehicle id="241" depart="1352.61">
        <route edges="gneE5 gneE1"/>
    </vehicle>
    <vehicle id="242" depart="1358.22">
        <route edges="gneE12 e10 e5"/>
    </vehicle>
    <vehicle id="243" depart="1363.83">
        <route edges="gneE4 gneE6 e7 e5 e12 gneE12 e10"/>
    </vehicle>
    <vehicle id="244" depart="1369.44">
        <route edges="gneE9 e3 e12 gneE12 e10"/>
    </vehicle>
    <vehicle id="245" depart="1375.06">
        <route edges="gneE9 e3 e2 e8 gneE11 e14"/>
    </vehicle>
    <vehicle id="246" depart="1380.67">
        <route edges="gneE10 gneE8 e11 e12 gneE12 e10"/>
    </vehicle>
    <vehicle id="247" depart="1386.28">
        <route edges="e6 gneE10 gneE8 e11"/>
    </vehicle>
    <vehicle id="248" depart="1391.89">
        <route edges="e13 gneE7 gneE9 e3 e2 gneE2 gneE4 gneE6"/>
    </vehicle>
    <vehicle id="249" depart="1397.51">
        <route edges="e3 e12"/>
    </vehicle>
    <vehicle id="250" depart="1403.12">
        <route edges="gneE1 e5 e12 gneE12 e10 gneE2"/>
    </vehicle>
    <vehicle id="251" depart="1408.73">
        <route edges="e14 e2 e9 gneE3 gneE5 gneE1"/>
    </vehicle>
    <vehicle id="252" depart="1414.34">
        <route edges="e12 gneE12 e10 e5"/>
    </vehicle>
    <vehicle id="253" depart="1419.96">
        <route edges="gneE8 e11 e12"/>
    </vehicle>
    <vehicle id="254" depart="1425.57">
        <route edges="e3 e2 gneE2"/>
    </vehicle>
    <vehicle id="255" depart="1431.18">
        <route edges="e9 gneE3 gneE5 gneE1"/>
    </vehicle>
    <vehicle id="256" depart="1436.79">
        <route edges="gneE6 e7 e5 e12"/>
    </vehicle>
    <vehicle id="257" depart="1442.41">
        <route edges="e7 e8 gneE11 e14"/>
    </vehicle>
    <vehicle id="258" depart="1448.02">
        <route edges="gneE7 gneE9 e3 e2 gneE2 gneE4"/>
    </vehicle>
    <vehicle id="259" depart="1453.63">
        <route edges="gneE2 gneE4 gneE6 e7 e5 e12 gneE12 e10 e9 gneE3 gneE5 gneE1"/>
    </vehicle>
    <vehicle id="260" depart="1459.24">
        <route edges="e12 gneE12 e10 gneE2 gneE4 gneE6 e7 e8"/>
    </vehicle>
    <vehicle id="261" depart="1464.86">
        <route edges="gneE11 e14 e2 e9 gneE3"/>
    </vehicle>
    <vehicle id="262" depart="1470.47">
        <route edges="e11 e12 gneE12 e10 e5 e13"/>
    </vehicle>
    <vehicle id="263" depart="1476.08">
        <route edges="gneE6 e7 e5 e12 gneE12 e10 e9"/>
    </vehicle>
    <vehicle id="264" depart="1481.69">
        <route edges="gneE5 gneE1 e5 e12 gneE12 e10"/>
    </vehicle>
    <vehicle id="265" depart="1487.31">
        <route edges="e7 e5 e12"/>
    </vehicle>
    <vehicle id="266" depart="1492.92">
        <route edges="e14 e2 gneE2 gneE4 gneE6"/>
    </vehicle>
    <vehicle id="267" depart="1498.53">
        <route edges="gneE5 gneE1 e5 e12"/>
    </vehicle>
    <vehicle id="268" depart="1504.14">
        <route edges="e11 e2 gneE2"/>
    </vehicle>
    <vehicle id="269" depart="1509.76">
        <route edges="gneE6 e7 e5 e6 gneE10"/>
    </vehicle>
    <vehicle id="270" depart="1515.37">
        <route edges="e13 gneE7 gneE9 e3 e2 e8"/>
    </vehicle>
    <vehicle id="271" depart="1520.98">
        <route edges="e10 gneE2 gneE4 gneE6 e7 e8 gneE11"/>
    </vehicle>
    <vehicle id="272" depart="1526.59">
        <route edges="gneE11 e14 e6 gneE10"/>
    </vehicle>
    <vehicle id="273" depart="1532.20">
        <route edges="gneE5 gneE1 e5 e12 gneE12 e10 gneE2 gneE4"/>
    </vehicle>
    <vehicle id="274" depart="1537.82">
        <route edges="e5 e12 gneE12 e10"/>
    </vehicle>
    <vehicle id="275" depart="1543.43">
        <route edges="e7 e8 gneE11 e14"/>
    </vehicle>
    <vehicle id="276" depart="1549.04">
        <route edges="gneE10 gneE8 e11 e2 gneE2 gneE4 gneE6"/>
    </vehicle>
    <vehicle id="277" depart="1554.65">
        <route edges="e12 gneE12 e10 e9 gneE3 gneE5"/>
    </vehicle>
    <vehicle id="278" depart="1560.27">
        <route edges="e12 gneE12 e10 gneE2"/>
    </vehicle>
    <vehicle id="279" depart="1565.88">
        <route edges="e7 e8 gneE11 e14 e2"/>
    </vehicle>
    <vehicle id="280" depart="1571.49">