<?xml version="1.0" encoding="UTF-8"?>

<!-- generated on Fri Dec 18 01:16:31 2020 by Eclipse SUMO duarouter Version 1.6.0
<configuration xmlns:xsi="http://www.w3.org/2001/XMLSchema-instance" xsi:noNamespaceSchemaLocation="http://sumo.dlr.de/xsd/duarouterConfiguration.xsd">

    <input>
        <net-file value="configs/two_inter/two_inter.net.xml"/>
        <route-files value="configs/two_inter/trips.trips.xml"/>
    </input>

    <output>
        <output-file value="configs/two_inter/traffic.rou.xml"/>
        <alternatives-output value="configs/two_inter/traffic.rou.alt.xml"/>
    </output>

    <time>
        <begin value="0"/>
        <end value="300"/>
    </time>

    <report>
        <no-warnings value="true"/>
        <ignore-errors value="true"/>
        <no-step-log value="true"/>
    </report>

</configuration>
-->

<routes xmlns:xsi="http://www.w3.org/2001/XMLSchema-instance" xsi:noNamespaceSchemaLocation="http://sumo.dlr.de/xsd/routes_file.xsd">
    <vehicle id="0" depart="0.00">
        <route edges="gneE4 gneE6 e7 e8 gneE11"/>
    </vehicle>
    <vehicle id="1" depart="0.75">
        <route edges="e14 e2 e8"/>
    </vehicle>
    <vehicle id="2" depart="1.50">
        <route edges="gneE9"/>
    </vehicle>
    <vehicle id="3" depart="2.26">
        <route edges="gneE5 gneE1 e5 e13 gneE7 gneE9 e3"/>
    </vehicle>
    <vehicle id="4" depart="3.01">
        <route edges="gneE10 gneE8 e11 e2 e9 gneE3 gneE5 gneE1"/>
    </vehicle>
    <vehicle id="5" depart="3.76">
        <route edges="gneE9 e3 e2 gneE2 gneE4 gneE6"/>
    </vehicle>
    <vehicle id="6" depart="4.51">
        <route edges="e7 e5 e12 gneE12 e10 e9 gneE3 gneE5"/>
    </vehicle>
    <vehicle id="7" depart="5.26">
        <route edges="e10 e9 gneE3 gneE5"/>
    </vehicle>
    <vehicle id="8" depart="6.02">
        <route edges="e2 e8 gneE11 e14 e6 gneE10 gneE8 e11"/>
    </vehicle>
    <vehicle id="9" depart="6.77">
        <route edges="gneE8 e11 e2 gneE2"/>
    </vehicle>
    <vehicle id="10" depart="7.52">
        <route edges="e10 e5 e6"/>
    </vehicle>
    <vehicle id="11" depart="8.27">
        <route edges="e12 gneE12 e10"/>
    </vehicle>
    <vehicle id="12" depart="9.02">
        <route edges="e10 e9 gneE3 gneE5 gneE1"/>
    </vehicle>
    <vehicle id="13" depart="9.77">
        <route edges="gneE8 e11 e2 gneE2 gneE4 gneE6"/>
    </vehicle>
    <vehicle id="14" depart="10.53">
        <route edges="e7 e8 gneE11 e14"/>
    </vehicle>
    <vehicle id="15" depart="11.28">
        <route edges="e6 gneE10 gneE8 e11 e2 gneE2 gneE4"/>
    </vehicle>
    <vehicle id="16" depart="12.03">
        <route edges="gneE1 e8 gneE11 e14"/>
    </vehicle>
    <vehicle id="17" depart="12.78">
        <route edges="gneE9 e3"/>
    </vehicle>
    <vehicle id="18" depart="13.53">
        <route edges="gneE3 gneE5 gneE1 e5 e6 gneE10 gneE8 e11"/>
    </vehicle>
    <vehicle id="19" depart="14.29">
        <route edges="e5 e6 gneE10 gneE8"/>
    </vehicle>
    <vehicle id="20" depart="15.04">
        <route edges="e6 gneE10 gneE8 e11 e12"/>
    </vehicle>
    <vehicle id="21" depart="15.79">
        <route edges="gneE7 gneE9 e3 e2 e9"/>
    </vehicle>
    <vehicle id="22" depart="16.54">
        <route edges="gneE7 gneE9 e3 e2 e9 gneE3 gneE5 gneE1"/>
    </vehicle>
    <vehicle id="23" depart="17.29">
        <route edges="e13 gneE7 gneE9 e3 e2"/>
    </vehicle>
    <vehicle id="24" depart="18.05">
        <route edges="gneE1 e5 e12 gneE12 e10 gneE2 gneE4 gneE6 e7"/>
    </vehicle>
    <vehicle id="25" depart="18.80">
        <route edges="gneE2 gneE4 gneE6 e7 e5 e13 gneE7"/>
    </vehicle>
    <vehicle id="26" depart="19.55">
        <route edges="gneE10 gneE8 e11 e12 gneE12 e10 e5 e13 gneE7 gneE9 e3"/>
    </vehicle>
    <vehicle id="27" depart="20.30">
        <route edges="e7 e5 e6"/>
    </vehicle>
    <vehicle id="28" depart="21.05">
        <route edges="e6 gneE10 gneE8 e11 e12 gneE12 e10"/>
    </vehicle>
    <vehicle id="29" depart="21.80">
        <route edges="e7 e5"/>
    </vehicle>
    <vehicle id="30" depart="22.56">
        <route edges="e7 e8"/>
    </vehicle>
    <vehicle id="31" depart="23.31">
        <route edges="e14 e2"/>
    </vehicle>
    <vehicle id="32" depart="24.06">
        <route edges="gneE2 gneE4 gneE6"/>
    </vehicle>
    <vehicle id="33" depart="24.81">
        <route edges="e13"/>
    </vehicle>
    <vehicle id="34" depart="25.56">
        <route edges="gneE8 e11 e2 e8 gneE11 e14"/>
    </vehicle>
    <vehicle id="35" depart="26.32">
        <route edges="e3 e2 gneE2 gneE4"/>
    </vehicle>
    <vehicle id="36" depart="27.07">
        <route edges="e10 e9 gneE3"/>
    </vehicle>
    <vehicle id="37" depart="27.82">
        <route edges="e12 gneE12 e10 gneE2 gneE4"/>
    </vehicle>
    <vehicle id="38" depart="28.57">
        <route edges="gneE10"/>
    </vehicle>
    <vehicle id="39" depart="29.32">
        <route edges="gneE11 e14 e6 gneE10"/>
    </vehicle>
    <vehicle id="40" depart="30.08">
        <route edges="e11 e2 e8 gneE11 e14"/>
    </vehicle>
    <vehicle id="41" depart="30.83">
        <route edges="gneE1 e8"/>
    </vehicle>
    <vehicle id="42" depart="31.58">
        <route edges="e11 e12 gneE12 e10 e5 e13 gneE7 gneE9 e3"/>
    </vehicle>
    <vehicle id="43" depart="32.33">
        <route edges="e10 e5 e13 gneE7 gneE9"/>
    </vehicle>
    <vehicle id="44" depart="33.08">
        <route edges="e9 gneE3 gneE5 gneE1 e5 e13 gneE7"/>
    </vehicle>
    <vehicle id="45" depart="33.83">
        <route edges="gneE6 e7 e5 e13 gneE7 gneE9 e3"/>
    </vehicle>
    <vehicle id="46" depart="34.59">
        <route edges="e12"/>
    </vehicle>
    <vehicle id="47" depart="35.34">
        <route edges="e12 gneE12 e10 e5 e6 gneE10 gneE8"/>
    </vehicle>
    <vehicle id="48" depart="36.09">
        <route edges="e7 e5 e6 gneE10 gneE8 e11"/>
    </vehicle>
    <vehicle id="49" depart="36.84">
        <route edges="e13 gneE7 gneE9 e3 e2"/>
    </vehicle>
    <vehicle id="50" depart="37.59">
        <route edges="e3 e12 gneE12 e10 e5 e6 gneE10"/>
    </vehicle>
    <vehicle id="51" depart="38.35">
        <route edges="e10 gneE2 gneE4 gneE6"/>
    </vehicle>
    <vehicle id="52" depart="39.10">
        <route edges="e11 e12 gneE12 e10 e5"/>
    </vehicle>
    <vehicle id="53" depart="39.85">
        <route edges="gneE10 gneE8 e11 e2 gneE2"/>
    </vehicle>
    <vehicle id="54" depart="40.60">
        <route edges="e3 e2 e9 gneE3"/>
    </vehicle>
    <vehicle id="55" depart="41.35">
        <route edges="e13 gneE7 gneE9 e3 e2 e9 gneE3 gneE5"/>
    </vehicle>
    <vehicle id="56" depart="42.11">
        <route edges="gneE7"/>
    </vehicle>
    <vehicle id="57" depart="42.86">
        <route edges="e12 gneE12 e10 e5 e6 gneE10 gneE8"/>
    </vehicle>
    <vehicle id="58" depart="43.61">
        <route edges="gneE10 gneE8 e11 e2 e9 gneE3 gneE5 gneE1"/>
    </vehicle>
    <vehicle id="59" depart="44.36">
        <route edges="e9 gneE3 gneE5 gneE1 e5 e13 gneE7 gneE9"/>
    </vehicle>
    <vehicle id="60" depart="45.11">
        <route edges="e7"/>
    </vehicle>
    <vehicle id="61" depart="45.86">
        <route edges="e14 e2 gneE2 gneE4 gneE6"/>
    </vehicle>
    <vehicle id="62" depart="46.62">
        <route edges="e13 gneE7 gneE9 e3 e12 gneE12 e10"/>
    </vehicle>
    <vehicle id="63" depart="47.37">
        <route edges="e7 gneE2"/>
    </vehicle>
    <vehicle id="64" depart="48.12">
        <route edges="e10"/>
    </vehicle>
    <vehicle id="65" depart="48.87">
        <route edges="gneE1"/>
    </vehicle>
    <vehicle id="66" depart="49.62">
        <route edges="e3 e13 gneE7 gneE9"/>
    </vehicle>
    <vehicle id="67" depart="50.38">
        <route edges="gneE3 gneE5 gneE1"/>
    </vehicle>
    <vehicle id="68" depart="51.13">
        <route edges="e14 e2 gneE2"/>
    </vehicle>
    <vehicle id="69" depart="51.88">
        <route edges="e9 gneE3 gneE5 gneE1 e5 e12 gneE12 e10"/>
    </vehicle>
    <vehicle id="70" depart="52.63">
        <route edges="gneE10 gneE8 e11 e6"/>
    </vehicle>
    <vehicle id="71" depart="53.38">
        <route edges="gneE6 e7 e8"/>
    </vehicle>
    <vehicle id="72" depart="54.14">
        <route edges="gneE2 gneE4 gneE6 e7 e5 e12 gneE12"/>
    </vehicle>
    <vehicle id="73" depart="54.89">
        <route edges="e5 e12 gneE12 e10 gneE2"/>
    </vehicle>
    <vehicle id="74" depart="55.64">
        <route edges="e12 gneE12 e10 e9 gneE3 gneE5 gneE1"/>
    </vehicle>
    <vehicle id="75" depart="56.39">
        <route edges="e5 e13 gneE7 gneE9"/>
    </vehicle>
    <vehicle id="76" depart="57.14">
        <route edges="gneE12 e10 gneE2 gneE4"/>
    </vehicle>
    <vehicle id="77" depart="57.89">
        <route edges="gneE6 e7 e8"/>
    </vehicle>
    <vehicle id="78" depart="58.65">
        <route edges="e14 e2 e8 gneE11"/>
    </vehicle>
    <vehicle id="79" depart="59.40">
        <route edges="e3 e12 gneE12"/>
    </vehicle>
    <vehicle id="80" depart="60.15">
        <route edges="gneE12 e10 e5 e13 gneE7 gneE9 e3 e2"/>
    </vehicle>
    <vehicle id="81" depart="60.90">
        <route edges="gneE12 e10 e9 gneE3"/>
    </vehicle>
    <vehicle id="82" depart="61.65">
        <route edges="e3 e13 gneE7 gneE9"/>
    </vehicle>
    <vehicle id="83" depart="62.41">
        <route edges="gneE3 gneE5 gneE1 e5"/>
    </vehicle>
    <vehicle id="84" depart="63.16">
        <route edges="gneE3 gneE5 gneE1 e5 e12 gneE12 e10 gneE2 gneE4"/>
    </vehicle>
    <vehicle id="85" depart="63.91">
        <route edges="gneE12 e10 e5 e12"/>
    </vehicle>
    <vehicle id="86" depart="64.66">
        <route edges="e11 e2 e8"/>
    </vehicle>
    <vehicle id="87" depart="65.41">
        <route edges="e5 e12 gneE12 e10 e9"/>
    </vehicle>
    <vehicle id="88" depart="66.17">
        <route edges="gneE11"/>
    </vehicle>
    <vehicle id="89" depart="66.92">
        <route edges="e5 e13 gneE7 gneE9 e3 e2 e8 gneE11"/>
    </vehicle>
    <vehicle id="90" depart="67.67">
        <route edges="gneE5 gneE1 e5 e12"/>
    </vehicle>
    <vehicle id="91" depart="68.42">
        <route edges="gneE8 e11 e2 gneE2 gneE4 gneE6 e7"/>
    </vehicle>
    <vehicle id="92" depart="69.17">
        <route edges="e3 e2 gneE2 gneE4"/>
    </vehicle>
    <vehicle id="93" depart="69.92">
        <route edges="gneE7 gneE9 e3 e2 gneE2"/>
    </vehicle>
    <vehicle id="94" depart="70.68">
        <route edges="gneE4 gneE6 e7 e5 e13"/>
    </vehicle>
    <vehicle id="95" depart="71.43">
        <route edges="e13 gneE7 gneE9 e3 e2 e9"/>
    </vehicle>
    <vehicle id="96" depart="72.18">
        <route edges="e8 gneE11 e14 e2 e9 gneE3 gneE5"/>
    </vehicle>
    <vehicle id="97" depart="72.93">
        <route edges="e5 e12 gneE12 e10 gneE2 gneE4 gneE6"/>
    </vehicle>
    <vehicle id="98" depart="73.68">
        <route edges="e7 e8 gneE11"/>
    </vehicle>
    <vehicle id="99" depart="74.44">
        <route edges="gneE2 gneE4 gneE6 e7 e5 e12 gneE12 e10 e9 gneE3 gneE5"/>
    </vehicle>
    <vehicle id="100" depart="75.19">
        <route edges="e11 e2 e9 gneE3 gneE5 gneE1"/>
    </vehicle>
    <vehicle id="101" depart="75.94">
        <route edges="e5 e6 gneE10 gneE8 e11"/>
    </vehicle>
    <vehicle id="102" depart="76.69">
        <route edges="gneE2 gneE4 gneE6 e7 e8"/>
    </vehicle>
    <vehicle id="103" depart="77.44">
        <route edges="e8 gneE11 e14 e13 gneE7 gneE9 e3 e12 gneE12"/>
    </vehicle>
    <vehicle id="104" depart="78.20">
        <route edges="e12 gneE12 e10 gneE2"/>
    </vehicle>
    <vehicle id="105" depart="78.95">
        <route edges="gneE12 e10 e5 e6 gneE10"/>
    </vehicle>
    <vehicle id="106" depart="79.70">
        <route edges="e3 e13 gneE7"/>
    </vehicle>
    <vehicle id="107" depart="80.45">
        <route edges="e14 e13 gneE7 gneE9 e3"/>
    </vehicle>
    <vehicle id="108" depart="81.20">
        <route edges="gneE3 gneE5 gneE1 e5 e13 gneE7 gneE9"/>
    </vehicle>
    <vehicle id="109" depart="81.95">
        <route edges="gneE4 gneE6 e7 e5 e13"/>
    </vehicle>
    <vehicle id="110" depart="82.71">
        <route edges="gneE4 gneE6 e7 e5 e12 gneE12 e10 e9 gneE3"/>
    </vehicle>
    <vehicle id="111" depart="83.46">
        <route edges="e10 e5 e6"/>
    </vehicle>
    <vehicle id="112" depart="84.21">
        <route edges="gneE7 gneE9 e3 e2 gneE2 gneE4 gneE6 e7"/>
    </vehicle>
    <vehicle id="113" depart="84.96">
        <route edges="gneE10 gneE8 e11 e2"/>
    </vehicle>
    <vehicle id="114" depart="85.71">
        <route edges="gneE7 gneE9 e3 e12 gneE12 e10 e5 e6 gneE10 gneE8"/>
    </vehicle>
    <vehicle id="115" depart="86.47">
        <route edges="e8 gneE11 e14 e2 e9 gneE3 gneE5 gneE1"/>
    </vehicle>
    <vehicle id="116" depart="87.22">
        <route edges="e5 e6 gneE10 gneE8 e11"/>
    </vehicle>
    <vehicle id="117" depart="87.97">
        <route edges="gneE2 gneE4 gneE6 e7 e8"/>
    </vehicle>
    <vehicle id="118" depart="88.72">
        <route edges="e3 e13 gneE7"/>
    </vehicle>
    <vehicle id="119" depart="89.47">
        <route edges="e7 gneE2"/>
    </vehicle>
    <vehicle id="120" depart="90.23">
        <route edges="e2 gneE2 gneE4 gneE6 e7 e5 e12 gneE12 e10"/>
    </vehicle>
    <vehicle id="121" depart="90.98">
        <route edges="gneE10 gneE8 e11 e2"/>
    </vehicle>
    <vehicle id="122" depart="91.73">
        <route edges="gneE5 gneE1 e8 gneE11"/>
    </vehicle>
    <vehicle id="123" depart="92.48">
        <route edges="gneE1 e8 gneE11 e14 e2"/>
    </vehicle>
    <vehicle id="124" depart="93.23">
        <route edges="e5 e12 gneE12 e10 gneE2 gneE4 gneE6"/>
    </vehicle>
    <vehicle id="125" depart="93.98">
        <route edges="gneE8 e11 e12 gneE12 e10"/>
    </vehicle>
    <vehicle id="126" depart="94.74">
        <route edges="gneE3 gneE5 gneE1 e8"/>
    </vehicle>
    <vehicle id="127" depart="95.49">
        <route edges="e7 e5 e6"/>
    </vehicle>
    <vehicle id="128" depart="96.24">
        <route edges="e3 e2 gneE2 gneE4 gneE6 e7"/>
    </vehicle>
    <vehicle id="129" depart="96.99">
        <route edges="gneE4 gneE6 e7 e5 e13 gneE7 gneE9 e3"/>
    </vehicle>
    <vehicle id="130" depart="97.74">
        <route edges="e12 gneE12 e10"/>
    </vehicle>
    <vehicle id="131" depart="98.50">
        <route edges="gneE7 gneE9 e3 e13"/>
    </vehicle>
    <vehicle id="132" depart="99.25">
        <route edges="gneE12 e10 e5 e6"/>
    </vehicle>
    <vehicle id="133" depart="100.00">
        <route edges="gneE4 gneE6 e7 e5 e12 gneE12 e10 e9 gneE3 gneE5 gneE1"/>
    </vehicle>
    <vehicle id="134" depart="100.75">
        <route edges="e7 e5 e13"/>
    </vehicle>
    <vehicle id="135" depart="101.50">
        <route edges="e14 e13 gneE7"/>
    </vehicle>
    <vehicle id="136" depart="102.26">
        <route edges="gneE1 e8 gneE11 e14"/>
    </vehicle>
    <vehicle id="137" depart="103.01">
        <route edges="gneE12 e10 e5 e13"/>
    </vehicle>
    <vehicle id="138" depart="103.76">
        <route edges="gneE8 e11 e12 gneE12 e10 e5 e13"/>
    </vehicle>
    <vehicle id="139" depart="104.51">
        <route edges="e2 e8 gneE11 e14 e13 gneE7 gneE9"/>
    </vehicle>
    <vehicle id="140" depart="105.26">
        <route edges="e12 gneE12 e10 gneE2 gneE4 gneE6"/>
    </vehicle>
    <vehicle id="141" depart="106.02">
        <route edges="e7 e5 e6 gneE10 gneE8"/>
    </vehicle>
    <vehicle id="142" depart="106.77">
        <route edges="e2 e8 gneE11"/>
    </vehicle>
    <vehicle id="143" depart="107.52">
        <route edges="gneE7 gneE9 e3 e2 gneE2 gneE4 gneE6 e7"/>
    </vehicle>
    <vehicle id="144" depart="108.27">
        <route edges="e8 gneE11 e14 e2 gneE2"/>
    </vehicle>
    <vehicle id="145" depart="109.02">
        <route edges="e9 gneE3 gneE5 gneE1 e8 gneE11 e14 e2"/>
    </vehicle>
    <vehicle id="146" depart="109.77">
        <route edges="e7 e5 e13 gneE7 gneE9"/>
    </vehicle>
    <vehicle id="147" depart="110.53">
        <route edges="gneE6 e7 e5 e12 gneE12 e10 e9 gneE3"/>
    </vehicle>
    <vehicle id="148" depart="111.28">
        <route edges="e10 gneE2 gneE4 gneE6 e7 e8"/>
    </vehicle>
    <vehicle id="149" depart="112.03">
        <route edges="gneE11 e14 e2 gneE2 gneE4 gneE6"/>
    </vehicle>
    <vehicle id="150" depart="112.78">
        <route edges="e2 e8 gneE11 e14 e13 gneE7 gneE9 e3"/>
    </vehicle>
    <vehicle id="151" depart="113.53">
        <route edges="gneE5 gneE1 e5 e13 gneE7 gneE9 e3"/>
    </vehicle>
    <vehicle id="152" depart="114.29">
        <route edges="e6 gneE10 gneE8 e11 e12 gneE12 e10 e5"/>
    </vehicle>
    <vehicle id="153" depart="115.04">
        <route edges="e14 e2"/>
    </vehicle>
    <vehicle id="154" depart="115.79">
        <route edges="gneE5 gneE1 e9 gneE3"/>
    </vehicle>
    <vehicle id="155" depart="116.54">
        <route edges="gneE4 gneE6 e7 e5 e13 gneE7 gneE9 e3"/>
    </vehicle>
    <vehicle id="156" depart="117.29">
        <route edges="gneE11 e14 e6 gneE10 gneE8 e11"/>
    </vehicle>
    <vehicle id="157" depart="118.05">
        <route edges="gneE1 e5 e12"/>
    </vehicle>
    <vehicle id="158" depart="118.80">
        <route edges="e12 gneE12 e10 e5 e13 gneE7 gneE9"/>
    </vehicle>
    <vehicle id="159" depart="119.55">
        <route edges="e8 gneE11 e14 e2"/>
    </vehicle>
    <vehicle id="160" depart="120.30">
        <route edges="gneE11 e14 e6 gneE10 gneE8 e11"/>
    </vehicle>
    <vehicle id="161" depart="121.05">
        <route edges="gneE3 gneE5 gneE1 e5 e13 gneE7 gneE9 e3"/>
    </vehicle>
    <vehicle id="162" depart="121.80">
        <route edges="e5 e12 gneE12 e10"/>
    </vehicle>
    <vehicle id="163" depart="122.56">
        <route edges="gneE8 e11 e2 e9"/>
    </vehicle>
    <vehicle id="164" depart="123.31">
        <route edges="gneE1 e8 gneE11"/>
    </vehicle>
    <vehicle id="165" depart="124.06">
        <route edges="e2 e8 gneE11 e14 e6 gneE10 gneE8 e11"/>
    </vehicle>
    <vehicle id="166" depart="124.81">
        <route edges="e11 e12"/>
    </vehicle>
    <vehicle id="167" depart="125.56">
        <route edges="e6 gneE10 gneE8 e11 e12 gneE12"/>
    </vehicle>
    <vehicle id="168" depart="126.32">
        <route edges="gneE2 gneE4 gneE6 e7 e5 e12"/>
    </vehicle>
    <vehicle id="169" depart="127.07">
        <route edges="gneE9 e3 e2 e8 gneE11 e14"/>
    </vehicle>
    <vehicle id="170" depart="127.82">
        <route edges="e10 gneE2 gneE4 gneE6 e7"/>
    </vehicle>
    <vehicle id="171" depart="128.57">
        <route edges="e3 e2 gneE2 gneE4"/>
    </vehicle>
    <vehicle id="172" depart="129.32">
        <route edges="e11 e6 gneE10"/>
    </vehicle>
    <vehicle id="173" depart="130.08">
        <route edges="e12 gneE12 e10 e5"/>
    </vehicle>
    <vehicle id="174" depart="130.83">
        <route edges="e13 gneE7 gneE9 e3 e12 gneE12 e10 e5 e6 gneE10 gneE8"/>
    </vehicle>
    <vehicle id="175" depart="131.58">
        <route edges="gneE8 e11 e2 gneE2 gneE4 gneE6 e7"/>
    </vehicle>
    <vehicle id="176" depart="132.33">
        <route edges="e2 e8 gneE11 e14 e13 gneE7 gneE9"/>
    </vehicle>
    <vehicle id="177" depart="133.08">
        <route edges="gneE3 gneE5 gneE1 e5 e13"/>
    </vehicle>
    <vehicle id="178" depart="133.83">
        <route edges="gneE5 gneE1 e9"/>
    </vehicle>
    <vehicle id="179" depart="134.59">
        <route edges="e7 e5 e13 gneE7"/>
    </vehicle>
    <vehicle id="180" depart="135.34">
        <route edges="gneE7 gneE9 e3 e2 gneE2 gneE4 gneE6 e7"/>
    </vehicle>
    <vehicle id="181" depart="136.09">
        <route edges="gneE4 gneE6 e7 e5 e12 gneE12 e10"/>
    </vehicle>
    <vehicle id="182" depart="136.84">
        <route edges="gneE6 e7 e5 e12 gneE12 e10"/>
    </vehicle>
    <vehicle id="183" depart="137.59">
        <route edges="gneE10 gneE8"/>
    </vehicle>
    <vehicle id="184" depart="138.35">
        <route edges="e12"/>
    </vehicle>
    <vehicle id="185" depart="139.10">
        <route edges="e14 e13 gneE7"/>
    </vehicle>
    <vehicle id="186" depart="139.85">
        <route edges="gneE9 e3 e2 e8 gneE11 e14"/>
    </vehicle>
    <vehicle id="187" depart="140.60">
        <route edges="gneE4 gneE6 e7 e5 e13 gneE7 gneE9"/>
    </vehicle>
    <vehicle id="188" depart="141.35">
        <route edges="gneE12 e10 e5 e6 gneE10"/>
    </vehicle>
    <vehicle id="189" depart="142.11">
        <route edges="e9 gneE3 gneE5 gneE1 e5 e13"/>
    </vehicle>
    <vehicle id="190" depart="142.86">
        <route edges="gneE1 e5 e12 gneE12 e10"/>
    </vehicle>
    <vehicle id="191" depart="143.61">
        <route edges="e13 gneE7 gneE9 e3 e12 gneE12 e10 e5 e6 gneE10"/>
    </vehicle>
    <vehicle id="192" depart="144.36">
        <route edges="gneE8 e11 e12 gneE12 e10 e5 e13"/>
    </vehicle>
    <vehicle id="193" depart="145.11">
        <route edges="e11 e12 gneE12 e10 e5"/>
    </vehicle>
    <vehicle id="194" depart="145.86">
        <route edges="e6 gneE10 gneE8 e11 e2 e8 gneE11"/>
    </vehicle>
    <vehicle id="195" depart="146.62">
        <route edges="gneE1"/>
    </vehicle>
    <vehicle id="196" depart="147.37">
        <route edges="gneE3 gneE5 gneE1 e5 e6"/>
    </vehicle>
    <vehicle id="197" depart="148.12">
        <route edges="gneE1 e9"/>
    </vehicle>
    <vehicle id="198" depart="148.87">
        <route edges="gneE10 gneE8 e11 e2 e9 gneE3 gneE5"/>
    </vehicle>
    <vehicle id="199" depart="149.62">
        <route edges="e5 e13 gneE7 gneE9 e3"/>
    </vehicle>
    <vehicle id="200" depart="150.38">
        <route edges="e2 e8 gneE11 e14 e13"/>
    </vehicle>
    <vehicle id="201" depart="151.13">
        <route edges="e12"/>
    </vehicle>
    <vehicle id="202" depart="151.88">
        <route edges="e3"/>
    </vehicle>
    <vehicle id="203" depart="152.63">
        <route edges="e2 gneE2 gneE4 gneE6 e7"/>
    </vehicle>
    <vehicle id="204" depart="153.38">
        <route edges="e14 e2 gneE2 gneE4 gneE6"/>
    </vehicle>
    <vehicle id="205" depart="154.14">
        <route edges="gneE5 gneE1 e5 e6"/>
    </vehicle>
    <vehicle id="206" depart="154.89">
        <route edges="e8"/>
    </vehicle>
    <vehicle id="207" depart="155.64">
        <route edges="e2 gneE2 gneE4 gneE6 e7 e5"/>
    </vehicle>
    <vehicle id="208" depart="156.39">
        <route edges="gneE6"/>
    </vehicle>
    <vehicle id="209" depart="157.14">
        <route edges="e14 e13 gneE7 gneE9 e3 e12 gneE12 e10"/>
    </vehicle>
    <vehicle id="210" depart="157.89">
        <route edges="e6 gneE10 gneE8 e11 e12 gneE12 e10"/>
    </vehicle>
    <vehicle id="211" depart="158.65">
        <route edges="e9 gneE3 gneE5 gneE1 e5 e6 gneE10"/>
    </vehicle>
    <vehicle id="212" depart="159.40">
        <route edges="e8 gneE11 e14 e2 e9 gneE3 gneE5"/>
    </vehicle>
    <vehicle id="213" depart="160.15">
        <route edges="e13 gneE7 gneE9 e3 e2 gneE2"/>
    </vehicle>
    <vehicle id="214" depart="160.90">
        <route edges="gneE11 e14 e6 gneE10 gneE8 e11"/>
    </vehicle>
    <vehicle id="215" depart="161.65">
        <route edges="e2 e8 gneE11 e14 e6 gneE10"/>
    </vehicle>
    <vehicle id="216" depart="162.41">
        <route edges="e13 gneE7 gneE9 e3 e12 gneE12"/>
    </vehicle>
    <vehicle id="217" depart="163.16">
        <route edges="gneE7 gneE9 e3 e12 gneE12 e10 e5 e6 gneE10"/>
    </vehicle>
    <vehicle id="218" depart="163.91">
        <route edges="e6 gneE10 gneE8 e11"/>
    </vehicle>
    <vehicle id="219" depart="164.66">
        <route edges="e5 e6"/>
    </vehicle>
    <vehicle id="220" depart="165.41">
        <route edges="gneE11 e14 e13 gneE7 gneE9"/>
    </vehicle>
    <vehicle id="221" depart="166.17">
        <route edges="e11 e2 e9 gneE3"/>
    </vehicle>
    <vehicle id="222" depart="166.92">
        <route edges="gneE9 e3 e2 gneE2"/>
    </vehicle>
    <vehicle id="223" depart="167.67">
        <route edges="gneE1 e5 e13"/>
    </vehicle>
    <vehicle id="224" depart="168.42">
        <route edges="gneE5 gneE1 e8"/>
    </vehicle>
    <vehicle id="225" depart="169.17">
        <route edges="gneE9 e3 e2 e9 gneE3 gneE5 gneE1"/>
    </vehicle>
    <vehicle id="226" depart="169.92">
        <route edges="gneE9 e3 e2 gneE2"/>
    </vehicle>
    <vehicle id="227" depart="170.68">
        <route edges="gneE8 e11 e6"/>
    </vehicle>
    <vehicle id="228" depart="171.43">
        <route edges="e3 e2 gneE2"/>
    </vehicle>
    <vehicle id="229" depart="172.18">
        <route edges="gneE9 e3 e2 gneE2 gneE4 gneE6"/>
    </vehicle>
    <vehicle id="230" depart="172.93">
        <route edges="e9 gneE3 gneE5 gneE1 e5 e13 gneE7"/>
    </vehicle>
    <vehicle id="231" depart="173.68">
        <route edges="gneE9 e3 e2 e9 gneE3 gneE5"/>
    </vehicle>
    <vehicle id="232" depart="174.44">
        <route edges="gneE3 gneE5 gneE1 e8 gneE11 e14"/>
    </vehicle>
    <vehicle id="233" depart="175.19">
        <route edges="e10 e9 gneE3 gneE5"/>
    </vehicle>
    <vehicle id="234" depart="175.94">
        <route edges="e2 e9 gneE3 gneE5"/>
    </vehicle>
    <vehicle id="235" depart="176.69">
        <route edges="gneE8 e11 e12 gneE12 e10 e5"/>
    </vehicle>
    <vehicle id="236" depart="177.44">
        <route edges="gneE8 e11 e2"/>
    </vehicle>
    <vehicle id="237" depart="178.20">
        <route edges="gneE11 e14 e13 gneE7 gneE9 e3 e12 gneE12"/>
    </vehicle>
    <vehicle id="238" depart="178.95">
        <route edges="gneE1 e8 gneE11 e14 e2"/>
    </vehicle>
    <vehicle id="239" depart="179.70">
        <route edges="e13 gneE7 gneE9 e3 e12 gneE12 e10 e5"/>
    </vehicle>
    <vehicle id="240" depart="180.45">
        <route edges="gneE3 gneE5 gneE1 e5 e12 gneE12"/>
    </vehicle>
    <vehicle id="241" depart="181.20">
        <route edges="gneE6 e7 e5 e12 gneE12 e10 e9"/>
    </vehicle>
    <vehicle id="242" depart="181.95">
        <route edges="gneE1 e5 e6 gneE10 gneE8"/>
    </vehicle>
    <vehicle id="243" depart="182.71">
        <route edges="e8 gneE11 e14 e13 gneE7 gneE9"/>
    </vehicle>
    <vehicle id="244" depart="183.46">
        <route edges="e10 e5 e6"/>
    </vehicle>
    <vehicle id="245" depart="184.21">
        <route edges="gneE3 gneE5 gneE1 e5 e6 gneE10 gneE8"/>
    </vehicle>
    <vehicle id="246" depart="184.96">
        <route edges="gneE5 gneE1 e5 e12 gneE12"/>
    </vehicle>
    <vehicle id="247" depart="185.71">
        <route edges="e6 gneE10 gneE8 e11 e12 gneE12 e10 e5 e13"/>
    </vehicle>
    <vehicle id="248" depart="186.47">
        <route edges="gneE1 e5"/>
    </vehicle>
    <vehicle id="249" depart="187.22">
        <route edges="e11 e2 e8 gneE11 e14"/>
    </vehicle>
    <vehicle id="250" depart="187.97">
        <route edges="e13 gneE7 gneE9 e3 e2 gneE2 gneE4"/>
    </vehicle>
    <vehicle id="251" depart="188.72">
        <route edges="gneE6 e7 e8"/>
    </vehicle>
    <vehicle id="252" depart="189.47">
        <route edges="gneE2 gneE4 gneE6 e7 e5"/>
    </vehicle>
    <vehicle id="253" depart="190.23">
        <route edges="e13 gneE7 gneE9 e3 e2 e9"/>
    </vehicle>
    <vehicle id="254" depart="190.98">
        <route edges="e10 gneE2 gneE4 gneE6 e7 e8 gneE11"/>
    </vehicle>
    <vehicle id="255" depart="191.73">
        <route edges="gneE9 e3 e12 gneE12"/>
    </vehicle>
    <vehicle id="256" depart="192.48">
        <route edges="gneE6 e7 e8 gneE11"/>
    </vehicle>
    <vehicle id="257" depart="193.23">
        <route edges="gneE9 e3 e2 gneE2 gneE4 gneE6 e7"/>
    </vehicle>
    <vehicle id="258" depart="193.98">
        <route edges="gneE9 e3 e2 e9"/>
    </vehicle>
    <vehicle id="259" depart="194.74">
        <route edges="e13"/>
    </vehicle>
    <vehicle id="260" depart="195.49">
        <route edges="gneE5 gneE1 e5 e12 gneE12 e10 gneE2"/>
    </vehicle>
    <vehicle id="261" depart="196.24">
        <route edges="gneE10 gneE8 e11 e6"/>
    </vehicle>
    <vehicle id="262" depart="196.99">
        <route edges="gneE4 gneE6 e7"/>
    </vehicle>
    <vehicle id="263" depart="197.74">
        <route edges="gneE5 gneE1 e9 gneE3"/>
    </vehicle>
    <vehicle id="264" depart="198.50">
        <route edges="e9 gneE3 gneE5 gneE1 e5 e12"/>
    </vehicle>
    <vehicle id="265" depart="199.25">
        <route edges="e13 gneE7 gneE9 e3 e12"/>
    </vehicle>
    <vehicle id="266" depart="200.00">
        <route edges="e8 gneE11 e14 e2 e9 gneE3"/>
    </vehicle>
    <vehicle id="267" depart="200.75">
        <route edges="e11 e6 gneE10 gneE8"/>
    </vehicle>
    <vehicle id="268" depart="201.50">
        <route edges="e14 e13 gneE7 gneE9"/>
    </vehicle>
    <vehicle id="269" depart="202.26">
        <route edges="gneE5 gneE1 e5 e6 gneE10"/>
    </vehicle>
    <vehicle id="270" depart="203.01">
        <route edges="e11 e2 gneE2 gneE4"/>
    </vehicle>
    <vehicle id="271" depart="203.76">
        <route edges="e5 e12"/>
    </vehicle>
    <vehicle id="272" depart="204.51">
        <route edges="e6 gneE10 gneE8 e11 e2 e9 gneE3 gneE5 gneE1"/>
    </vehicle>
    <vehicle id="273" depart="205.26">
        <route edges="gneE4 gneE6 e7 e8 gneE11"/>
    </vehicle>
    <vehicle id="274" depart="206.02">
        <route edges="gneE10 gneE8 e11 e12 gneE12 e10 e5 e13 gneE7 gneE9 e3"/>
    </vehicle>
    <vehicle id="275" depart="206.77">
        <route edges="gneE3"/>
    </vehicle>
    <vehicle id="276" depart="207.52">
        <route edges="e8 gneE11 e14 e2 gneE2"/>
    </vehicle>
    <vehicle id="277" depart="208.27">
        <route edges="e7 e8 gneE11 e14"/>
    </vehicle>
    <vehicle id="278" depart="209.02">
        <route edges="e7 e5 e6 gneE10 gneE8 e11"/>
    </vehicle>
    <vehicle id="279" depart="209.77">
        <route edges="e9 gneE3 gneE5 gneE1 e5 e12 gneE12 e10 gneE2 gneE4 gneE6 e7"/>
    </vehicle>
    <vehicle id="280" depart="210.53">
        <route edges="e7 gneE2 gneE4"/>
    </vehicle>
    <vehicle id="281" depart="211.28">
        <route edges="gneE8 e11 e2 e9"/>
    </vehicle>
    <vehicle id="282" depart="212.03">
        <route edges="e3 e12 gneE12 e10"/>
    </vehicle>
    <vehicle id="283" depart="212.78">