<?xml version="1.0" encoding="UTF-8"?>

<!-- generated on Mon Mar 15 18:37:41 2021 by Eclipse SUMO duarouter Version 1.6.0
<configuration xmlns:xsi="http://www.w3.org/2001/XMLSchema-instance" xsi:noNamespaceSchemaLocation="http://sumo.dlr.de/xsd/duarouterConfiguration.xsd">

    <input>
        <net-file value="configs/two_inter/two_inter.net.xml"/>
        <route-files value="configs/two_inter/trips.trips.xml"/>
    </input>

    <output>
        <output-file value="configs/two_inter/traffic.rou.xml"/>
        <alternatives-output value="configs/two_inter/traffic.rou.alt.xml"/>
    </output>

    <time>
        <begin value="0"/>
        <end value="2814"/>
    </time>

    <report>
        <no-warnings value="true"/>
        <ignore-errors value="true"/>
        <no-step-log value="true"/>
    </report>

</configuration>
-->

<routes xmlns:xsi="http://www.w3.org/2001/XMLSchema-instance" xsi:noNamespaceSchemaLocation="http://sumo.dlr.de/xsd/routes_file.xsd">
    <vehicle id="0" depart="0.00">
        <route edges="gneE11 e14 e13 gneE7 gneE9 e3 e12 gneE12 e10"/>
    </vehicle>
    <vehicle id="1" depart="5.51">
        <route edges="gneE5 gneE1"/>
    </vehicle>
    <vehicle id="2" depart="11.01">
        <route edges="gneE8 e11 e12 gneE12 e10 e5"/>
    </vehicle>
    <vehicle id="3" depart="16.52">
        <route edges="e10 gneE2 gneE4"/>
    </vehicle>
    <vehicle id="4" depart="22.03">
        <route edges="e13 gneE7 gneE9 e3 e2 e8 gneE11 e14"/>
    </vehicle>
    <vehicle id="5" depart="27.53">
        <route edges="gneE2 gneE4 gneE6 e7 e5 e13 gneE7 gneE9"/>
    </vehicle>
    <vehicle id="6" depart="33.04">
        <route edges="gneE2 gneE4 gneE6 e7"/>
    </vehicle>
    <vehicle id="7" depart="38.55">
        <route edges="e11 e2 gneE2 gneE4 gneE6 e7"/>
    </vehicle>
    <vehicle id="8" depart="44.05">
        <route edges="e13 gneE7 gneE9 e3 e2 e9 gneE3 gneE5"/>
    </vehicle>
    <vehicle id="9" depart="49.56">
        <route edges="e11 e2 e9 gneE3"/>
    </vehicle>
    <vehicle id="10" depart="55.07">
        <route edges="e10 gneE2 gneE4 gneE6 e7 e8 gneE11"/>
    </vehicle>
    <vehicle id="11" depart="60.58">
        <route edges="gneE9 e3 e2 e9"/>
    </vehicle>
    <vehicle id="12" depart="66.08">
        <route edges="gneE11 e14 e2 gneE2 gneE4 gneE6 e7 e5"/>
    </vehicle>
    <vehicle id="13" depart="71.59">
        <route edges="gneE7 gneE9 e3 e12 gneE12 e10 e5 e6"/>
    </vehicle>
    <vehicle id="14" depart="77.10">
        <route edges="e5 e6 gneE10"/>
    </vehicle>
    <vehicle id="15" depart="82.60">
        <route edges="e8 gneE11 e14 e2 e9 gneE3"/>
    </vehicle>
    <vehicle id="16" depart="88.11">
        <route edges="e8 gneE11 e14 e2 e9 gneE3 gneE5"/>
    </vehicle>
    <vehicle id="17" depart="93.62">
        <route edges="gneE11 e14 e2"/>
    </vehicle>
    <vehicle id="18" depart="99.12">
        <route edges="e5 e12 gneE12 e10"/>
    </vehicle>
    <vehicle id="19" depart="104.63">
        <route edges="e11 e2"/>
    </vehicle>
    <vehicle id="20" depart="110.14">
        <route edges="gneE7 gneE9 e3 e2 e8"/>
    </vehicle>
    <vehicle id="21" depart="115.64">
        <route edges="gneE4 gneE6 e7 e5 e13 gneE7"/>
    </vehicle>
    <vehicle id="22" depart="121.15">
        <route edges="e13 gneE7 gneE9 e3 e2 gneE2 gneE4"/>
    </vehicle>
    <vehicle id="23" depart="126.66">
        <route edges="e6 gneE10 gneE8 e11"/>
    </vehicle>
    <vehicle id="24" depart="132.16">
        <route edges="gneE10 gneE8 e11 e2 e8"/>
    </vehicle>
    <vehicle id="25" depart="137.67">
        <route edges="gneE10 gneE8 e11 e2 e8"/>
    </vehicle>
    <vehicle id="26" depart="143.18">
        <route edges="gneE8"/>
    </vehicle>
    <vehicle id="27" depart="148.68">
        <route edges="e14 e13 gneE7"/>
    </vehicle>
    <vehicle id="28" depart="154.19">
        <route edges="e10 e5 e13 gneE7 gneE9 e3 e2"/>
    </vehicle>
    <vehicle id="29" depart="159.70">
        <route edges="gneE4 gneE6 e7 e5 e12 gneE12 e10 e9"/>
    </vehicle>
    <vehicle id="30" depart="165.21">
        <route edges="e14 e2 e9"/>
    </vehicle>
    <vehicle id="31" depart="170.71">
        <route edges="gneE2"/>
    </vehicle>
    <vehicle id="32" depart="176.22">
        <route edges="e3 e2 e8 gneE11"/>
    </vehicle>
    <vehicle id="33" depart="181.73">
        <route edges="gneE8 e11 e2 e9 gneE3"/>
    </vehicle>
    <vehicle id="34" depart="187.23">
        <route edges="gneE12 e10 gneE2 gneE4 gneE6 e7 e8 gneE11"/>
    </vehicle>
    <vehicle id="35" depart="192.74">
        <route edges="gneE7 gneE9 e3 e2"/>
    </vehicle>
    <vehicle id="36" depart="198.25">
        <route edges="gneE10 gneE8 e11 e12 gneE12 e10 e5 e13 gneE7"/>
    </vehicle>
    <vehicle id="37" depart="203.75">
        <route edges="gneE10 gneE8 e11 e12 gneE12 e10"/>
    </vehicle>
    <vehicle id="38" depart="209.26">
        <route edges="e6 gneE10 gneE8 e11 e2 gneE2 gneE4"/>
    </vehicle>
    <vehicle id="39" depart="214.77">
        <route edges="gneE8 e11 e12 gneE12 e10 e5"/>
    </vehicle>
    <vehicle id="40" depart="220.27">
        <route edges="e14 e2 e8 gneE11"/>
    </vehicle>
    <vehicle id="41" depart="225.78">
        <route edges="gneE7 gneE9 e3 e2 gneE2"/>
    </vehicle>
    <vehicle id="42" depart="231.29">
        <route edges="e5 e12 gneE12 e10 gneE2 gneE4 gneE6 e7"/>
    </vehicle>
    <vehicle id="43" depart="236.79">
        <route edges="e7 e5 e13 gneE7"/>
    </vehicle>
    <vehicle id="44" depart="242.30">
        <route edges="gneE8 e11 e12 gneE12 e10"/>
    </vehicle>
    <vehicle id="45" depart="247.81">
        <route edges="e9 gneE3 gneE5 gneE1 e8 gneE11 e14"/>
    </vehicle>
    <vehicle id="46" depart="253.32">
        <route edges="gneE9 e3 e2"/>
    </vehicle>
    <vehicle id="47" depart="258.82">
        <route edges="e13 gneE7 gneE9 e3 e12 gneE12 e10 e5 e6"/>
    </vehicle>
    <vehicle id="48" depart="264.33">
        <route edges="gneE3 gneE5 gneE1 e5 e12 gneE12 e10 gneE2 gneE4 gneE6 e7"/>
    </vehicle>
    <vehicle id="49" depart="269.84">
        <route edges="gneE8 e11 e12 gneE12 e10"/>
    </vehicle>
    <vehicle id="50" depart="275.34">
        <route edges="e6 gneE10 gneE8 e11 e2 gneE2 gneE4 gneE6"/>
    </vehicle>
    <vehicle id="51" depart="280.85">
        <route edges="e3 e13"/>
    </vehicle>
    <vehicle id="52" depart="286.36">
        <route edges="e7 e5"/>
    </vehicle>
    <vehicle id="53" depart="291.86">
        <route edges="gneE9 e3 e2 e8 gneE11"/>
    </vehicle>
    <vehicle id="54" depart="297.37">
        <route edges="e3 e2 e8 gneE11"/>
    </vehicle>
    <vehicle id="55" depart="302.88">
        <route edges="e7 gneE2"/>
    </vehicle>
    <vehicle id="56" depart="308.38">
        <route edges="gneE1 e5 e12 gneE12 e10"/>
    </vehicle>
    <vehicle id="57" depart="313.89">
        <route edges="e13 gneE7 gneE9"/>
    </vehicle>
    <vehicle id="58" depart="319.40">
        <route edges="e9 gneE3 gneE5 gneE1 e5 e6"/>
    </vehicle>
    <vehicle id="59" depart="324.90">
        <route edges="gneE4 gneE6 e7 e5 e12 gneE12 e10"/>
    </vehicle>
    <vehicle id="60" depart="330.41">
        <route edges="e13 gneE7 gneE9 e3 e2 e8"/>
    </vehicle>
    <vehicle id="61" depart="335.92">
        <route edges="e10 gneE2 gneE4 gneE6"/>
    </vehicle>
    <vehicle id="62" depart="341.42">
        <route edges="gneE6 e7 e5 e12 gneE12 e10 e9"/>
    </vehicle>
    <vehicle id="63" depart="346.93">
        <route edges="e12 gneE12 e10 e5 e13 gneE7 gneE9 e3"/>
    </vehicle>
    <vehicle id="64" depart="352.44">
        <route edges="gneE5 gneE1 e5 e6"/>
    </vehicle>
    <vehicle id="65" depart="357.95">
        <route edges="gneE2 gneE4"/>
    </vehicle>
    <vehicle id="66" depart="363.45">
        <route edges="gneE1 e5 e12 gneE12"/>
    </vehicle>
    <vehicle id="67" depart="368.96">
        <route edges="e7 gneE2"/>
    </vehicle>
    <vehicle id="68" depart="374.47">
        <route edges="e11 e2"/>
    </vehicle>
    <vehicle id="69" depart="379.97">
        <route edges="gneE2 gneE4 gneE6 e7 e5 e12 gneE12 e10 e9 gneE3 gneE5"/>
    </vehicle>
    <vehicle id="70" depart="385.48">
        <route edges="gneE4 gneE6 e7 e5 e13"/>
    </vehicle>
    <vehicle id="71" depart="390.99">
        <route edges="gneE2 gneE4 gneE6 e7 e8"/>
    </vehicle>
    <vehicle id="72" depart="396.49">
        <route edges="gneE6 e7 e5 e13 gneE7 gneE9"/>
    </vehicle>
    <vehicle id="73" depart="402.00">
        <route edges="gneE8 e11 e12 gneE12 e10 e5 e13 gneE7 gneE9 e3"/>
    </vehicle>
    <vehicle id="74" depart="407.51">
        <route edges="gneE10 gneE8 e11 e12 gneE12 e10 e5"/>
    </vehicle>
    <vehicle id="75" depart="413.01">
        <route edges="gneE2 gneE4 gneE6 e7 e8 gneE11 e14"/>
    </vehicle>
    <vehicle id="76" depart="418.52">
        <route edges="e3 e12 gneE12 e10 e5 e6"/>
    </vehicle>
    <vehicle id="77" depart="424.03">
        <route edges="e3 e12 gneE12 e10"/>
    </vehicle>
    <vehicle id="78" depart="429.53">
        <route edges="gneE12 e10 e5 e12"/>
    </vehicle>
    <vehicle id="79" depart="435.04">
        <route edges="gneE5 gneE1 e5 e12 gneE12 e10 gneE2 gneE4 gneE6"/>
    </vehicle>
    <vehicle id="80" depart="440.55">
        <route edges="gneE8 e11 e2 e9 gneE3"/>
    </vehicle>
    <vehicle id="81" depart="446.05">
        <route edges="e8 gneE11 e14 e13 gneE7"/>
    </vehicle>
    <vehicle id="82" depart="451.56">
        <route edges="gneE2 gneE4 gneE6 e7 e5"/>
    </vehicle>
    <vehicle id="83" depart="457.07">
        <route edges="e5 e6 gneE10"/>
    </vehicle>
    <vehicle id="84" depart="462.58">
        <route edges="gneE2 gneE4 gneE6 e7 e8 gneE11 e14"/>
    </vehicle>
    <vehicle id="85" depart="468.08">
        <route edges="gneE7 gneE9 e3 e2 e9"/>
    </vehicle>
    <vehicle id="86" depart="473.59">
        <route edges="e3 e2 gneE2 gneE4 gneE6 e7"/>
    </vehicle>
    <vehicle id="87" depart="479.10">
        <route edges="e2 gneE2 gneE4 gneE6 e7 e5 e12 gneE12"/>
    </vehicle>
    <vehicle id="88" depart="484.60">
        <route edges="e12 gneE12 e10 e9 gneE3"/>
    </vehicle>
    <vehicle id="89" depart="490.11">
        <route edges="e8 gneE11 e14 e2 gneE2"/>
    </vehicle>
    <vehicle id="90" depart="495.62">
        <route edges="gneE3"/>
    </vehicle>
    <vehicle id="91" depart="501.12">
        <route edges="e14 e6"/>
    </vehicle>
    <vehicle id="92" depart="506.63">
        <route edges="gneE11 e14"/>
    </vehicle>
    <vehicle id="93" depart="512.14">
        <route edges="e2 e9 gneE3 gneE5"/>
    </vehicle>
    <vehicle id="94" depart="517.64">
        <route edges="gneE6 e7"/>
    </vehicle>
    <vehicle id="95" depart="523.15">
        <route edges="gneE6 e7 e5 e13 gneE7"/>
    </vehicle>
    <vehicle id="96" depart="528.66">
        <route edges="gneE1 e5 e12"/>
    </vehicle>
    <vehicle id="97" depart="534.16">
        <route edges="e7 e5 e12 gneE12 e10 e9"/>
    </vehicle>
    <vehicle id="98" depart="539.67">
        <route edges="gneE12 e10 gneE2 gneE4 gneE6 e7 e8 gneE11"/>
    </vehicle>
    <vehicle id="99" depart="545.18">
        <route edges="e14 e2 gneE2 gneE4 gneE6 e7 e5"/>
    </vehicle>
    <vehicle id="100" depart="550.68">
        <route edges="gneE4 gneE6 e7 e5 e13 gneE7 gneE9"/>
    </vehicle>
    <vehicle id="101" depart="556.19">
        <route edges="e8 gneE11 e14 e13 gneE7"/>
    </vehicle>
    <vehicle id="102" depart="561.70">
        <route edges="e3 e2 e9 gneE3"/>
    </vehicle>
    <vehicle id="103" depart="567.21">
        <route edges="e12 gneE12 e10 e5 e6"/>
    </vehicle>
    <vehicle id="104" depart="572.71">
        <route edges="e10 e9 gneE3 gneE5 gneE1"/>
    </vehicle>
    <vehicle id="105" depart="578.22">
        <route edges="e14 e13"/>
    </vehicle>
    <vehicle id="106" depart="583.73">
        <route edges="gneE4 gneE6 e7 e5 e12"/>
    </vehicle>
    <vehicle id="107" depart="589.23">
        <route edges="gneE10 gneE8 e11 e2 e8 gneE11 e14"/>
    </vehicle>
    <vehicle id="108" depart="594.74">
        <route edges="e9 gneE3 gneE5 gneE1 e8 gneE11 e14"/>
    </vehicle>
    <vehicle id="109" depart="600.25">
        <route edges="e2 gneE2 gneE4"/>
    </vehicle>
    <vehicle id="110" depart="605.75">
        <route edges="gneE8"/>
    </vehicle>
    <vehicle id="111" depart="611.26">
        <route edges="gneE11 e14 e2 e9 gneE3 gneE5"/>
    </vehicle>
    <vehicle id="112" depart="616.77">
        <route edges="gneE2 gneE4 gneE6 e7 e5 e13"/>
    </vehicle>
    <vehicle id="113" depart="622.27">
        <route edges="gneE8 e11 e2 e8"/>
    </vehicle>
    <vehicle id="114" depart="627.78">
        <route edges="e7 e5 e12 gneE12 e10 e9 gneE3 gneE5 gneE1"/>
    </vehicle>
    <vehicle id="115" depart="633.29">
        <route edges="e6 gneE10 gneE8 e11 e12 gneE12 e10 e5"/>
    </vehicle>
    <vehicle id="116" depart="638.79">
        <route edges="gneE1 e5 e6"/>
    </vehicle>
    <vehicle id="117" depart="644.30">
        <route edges="e14 e13 gneE7 gneE9 e3 e12 gneE12"/>
    </vehicle>
    <vehicle id="118" depart="649.81">
        <route edges="gneE6 e7 e5 e12"/>
    </vehicle>
    <vehicle id="119" depart="655.32">
        <route edges="e3 e13"/>
    </vehicle>
    <vehicle id="120" depart="660.82">
        <route edges="gneE9 e3 e12 gneE12 e10 e5"/>
    </vehicle>
    <vehicle id="121" depart="666.33">
        <route edges="e2 e8 gneE11 e14 e6 gneE10"/>
    </vehicle>
    <vehicle id="122" depart="671.84">
        <route edges="e13"/>
    </vehicle>
    <vehicle id="123" depart="677.34">
        <route edges="gneE2 gneE4 gneE6 e7 e8 gneE11 e14"/>
    </vehicle>
    <vehicle id="124" depart="682.85">
        <route edges="e13 gneE7 gneE9 e3 e2 e9 gneE3"/>
    </vehicle>
    <vehicle id="125" depart="688.36">
        <route edges="e5 e13 gneE7 gneE9 e3 e2"/>
    </vehicle>
    <vehicle id="126" depart="693.86">
        <route edges="gneE6 e7 e8 gneE11 e14 e2"/>
    </vehicle>
    <vehicle id="127" depart="699.37">
        <route edges="gneE12 e10 gneE2 gneE4 gneE6 e7"/>
    </vehicle>
    <vehicle id="128" depart="704.88">
        <route edges="e8 gneE11 e14 e2 gneE2 gneE4"/>
    </vehicle>
    <vehicle id="129" depart="710.38">
        <route edges="e3 e2 gneE2 gneE4 gneE6"/>
    </vehicle>
    <vehicle id="130" depart="715.89">
        <route edges="gneE1 e8 gneE11"/>
    </vehicle>
    <vehicle id="131" depart="721.40">
        <route edges="gneE4 gneE6 e7 e5 e12 gneE12 e10 e9 gneE3 gneE5"/>
    </vehicle>
    <vehicle id="132" depart="726.90">
        <route edges="e13 gneE7 gneE9 e3 e2 e9 gneE3"/>
    </vehicle>
    <vehicle id="133" depart="732.41">
        <route edges="e2 e8 gneE11 e14"/>
    </vehicle>
    <vehicle id="134" depart="737.92">
        <route edges="gneE3 gneE5 gneE1 e5 e13 gneE7 gneE9"/>
    </vehicle>
    <vehicle id="135" depart="743.42">
        <route edges="gneE8 e11 e6 gneE10"/>
    </vehicle>
    <vehicle id="136" depart="748.93">
        <route edges="e6 gneE10 gneE8 e11 e2 gneE2 gneE4 gneE6"/>
    </vehicle>
    <vehicle id="137" depart="754.44">
        <route edges="e6 gneE10 gneE8"/>
    </vehicle>
    <vehicle id="138" depart="759.95">
        <route edges="gneE6 e7 e5 e6 gneE10 gneE8"/>
    </vehicle>
    <vehicle id="139" depart="765.45">
        <route edges="e8 gneE11 e14 e2 e9 gneE3 gneE5 gneE1"/>
    </vehicle>
    <vehicle id="140" depart="770.96">
        <route edges="e3 e2 gneE2 gneE4 gneE6"/>
    </vehicle>
    <vehicle id="141" depart="776.47">
        <route edges="e2"/>
    </vehicle>
    <vehicle id="142" depart="781.97">
        <route edges="e13 gneE7 gneE9"/>
    </vehicle>
    <vehicle id="143" depart="787.48">
        <route edges="e12 gneE12 e10 gneE2 gneE4 gneE6 e7"/>
    </vehicle>
    <vehicle id="144" depart="792.99">
        <route edges="e2 e9"/>
    </vehicle>
    <vehicle id="145" depart="798.49">
        <route edges="e8 gneE11 e14 e13"/>
    </vehicle>
    <vehicle id="146" depart="804.00">
        <route edges="e2 e9 gneE3"/>
    </vehicle>
    <vehicle id="147" depart="809.51">
        <route edges="gneE12 e10 e5"/>
    </vehicle>
    <vehicle id="148" depart="815.01">
        <route edges="e9"/>
    </vehicle>
    <vehicle id="149" depart="820.52">
        <route edges="e8"/>
    </vehicle>
    <vehicle id="150" depart="826.03">
        <route edges="gneE2 gneE4 gneE6 e7 e5 e12 gneE12 e10 e9 gneE3 gneE5"/>
    </vehicle>
    <vehicle id="151" depart="831.53">
        <route edges="e2 e8 gneE11"/>
    </vehicle>
    <vehicle id="152" depart="837.04">
        <route edges="gneE9 e3 e2 e8 gneE11"/>
    </vehicle>
    <vehicle id="153" depart="842.55">
        <route edges="gneE9 e3 e12 gneE12"/>
    </vehicle>
    <vehicle id="154" depart="848.05">
        <route edges="gneE1 e9 gneE3"/>
    </vehicle>
    <vehicle id="155" depart="853.56">
        <route edges="e7"/>
    </vehicle>
    <vehicle id="156" depart="859.07">
        <route edges="e10 e5 e13 gneE7 gneE9"/>
    </vehicle>
    <vehicle id="157" depart="864.58">
        <route edges="gneE3 gneE5 gneE1 e5 e6 gneE10 gneE8"/>
    </vehicle>
    <vehicle id="158" depart="870.08">
        <route edges="e12 gneE12 e10 e5 e13 gneE7"/>
    </vehicle>
    <vehicle id="159" depart="875.59">
        <route edges="gneE12 e10 e5 e6 gneE10 gneE8"/>
    </vehicle>
    <vehicle id="160" depart="881.10">
        <route edges="gneE7 gneE9 e3 e2 e9"/>
    </vehicle>
    <vehicle id="161" depart="886.60">
        <route edges="gneE8 e11 e6 gneE10"/>
    </vehicle>
    <vehicle id="162" depart="892.11">
        <route edges="e2 e8 gneE11 e14 e6 gneE10"/>
    </vehicle>
    <vehicle id="163" depart="897.62">
        <route edges="e7 gneE2 gneE4"/>
    </vehicle>
    <vehicle id="164" depart="903.12">
        <route edges="gneE12"/>
    </vehicle>
    <vehicle id="165" depart="908.63">
        <route edges="e13 gneE7 gneE9 e3 e12"/>
    </vehicle>
    <vehicle id="166" depart="914.14">
        <route edges="gneE12 e10 gneE2 gneE4 gneE6 e7"/>
    </vehicle>
    <vehicle id="167" depart="919.64">
        <route edges="gneE12 e10"/>
    </vehicle>
    <vehicle id="168" depart="925.15">
        <route edges="gneE10 gneE8 e11 e12 gneE12"/>
    </vehicle>
    <vehicle id="169" depart="930.66">
        <route edges="e10 e9"/>
    </vehicle>
    <vehicle id="170" depart="936.16">
        <route edges="e5 e12 gneE12 e10 e9"/>
    </vehicle>
    <vehicle id="171" depart="941.67">
        <route edges="e14 e2 e9"/>
    </vehicle>
    <vehicle id="172" depart="947.18">
        <route edges="gneE3 gneE5 gneE1 e5 e12 gneE12 e10 gneE2"/>
    </vehicle>
    <vehicle id="173" depart="952.68">
        <route edges="gneE8 e11"/>
    </vehicle>
    <vehicle id="174" depart="958.19">
        <route edges="e14 e2 gneE2 gneE4"/>
    </vehicle>
    <vehicle id="175" depart="963.70">
        <route edges="gneE4 gneE6 e7 e5"/>
    </vehicle>
    <vehicle id="176" depart="969.21">
        <route edges="gneE1 e5 e12 gneE12"/>
    </vehicle>
    <vehicle id="177" depart="974.71">
        <route edges="e2 gneE2 gneE4"/>
    </vehicle>
    <vehicle id="178" depart="980.22">
        <route edges="gneE11 e14 e2 e9 gneE3 gneE5"/>
    </vehicle>
    <vehicle id="179" depart="985.73">
        <route edges="e3 e12 gneE12"/>
    </vehicle>
    <vehicle id="180" depart="991.23">
        <route edges="e12"/>
    </vehicle>
    <vehicle id="181" depart="996.74">
        <route edges="gneE12 e10 e5"/>
    </vehicle>
    <vehicle id="182" depart="1002.25">
        <route edges="e14 e2 gneE2"/>
    </vehicle>
    <vehicle id="183" depart="1007.75">
        <route edges="e11 e2 e8"/>
    </vehicle>
    <vehicle id="184" depart="1013.26">
        <route edges="e7 e5 e12 gneE12 e10 e9 gneE3"/>
    </vehicle>
    <vehicle id="185" depart="1018.77">
        <route edges="gneE11 e14"/>
    </vehicle>
    <vehicle id="186" depart="1024.27">
        <route edges="gneE1 e5 e13 gneE7 gneE9"/>
    </vehicle>
    <vehicle id="187" depart="1029.78">
        <route edges="e7 e8 gneE11 e14"/>
    </vehicle>
    <vehicle id="188" depart="1035.29">
        <route edges="e3 e2 e8 gneE11 e14"/>
    </vehicle>
    <vehicle id="189" depart="1040.79">
        <route edges="gneE10 gneE8 e11 e12"/>
    </vehicle>
    <vehicle id="190" depart="1046.30">
        <route edges="e9 gneE3 gneE5 gneE1 e5 e6 gneE10 gneE8 e11"/>
    </vehicle>
    <vehicle id="191" depart="1051.81">
        <route edges="e9 gneE3 gneE5 gneE1 e5 e12 gneE12 e10 gneE2 gneE4"/>
    </vehicle>
    <vehicle id="192" depart="1057.32">
        <route edges="gneE9 e3 e2 e9 gneE3"/>
    </vehicle>
    <vehicle id="193" depart="1062.82">
        <route edges="gneE3 gneE5 gneE1 e5"/>
    </vehicle>
    <vehicle id="194" depart="1068.33">
        <route edges="gneE10 gneE8 e11 e12 gneE12 e10 e5 e13"/>
    </vehicle>
    <vehicle id="195" depart="1073.84">
        <route edges="gneE9 e3 e12 gneE12 e10"/>
    </vehicle>
    <vehicle id="196" depart="1079.34">
        <route edges="e14"/>
    </vehicle>
    <vehicle id="197" depart="1084.85">
        <route edges="gneE10 gneE8 e11 e12"/>
    </vehicle>
    <vehicle id="198" depart="1090.36">
        <route edges="e12 gneE12 e10 gneE2 gneE4"/>
    </vehicle>
    <vehicle id="199" depart="1095.86">
        <route edges="e14 e2 gneE2 gneE4"/>
    </vehicle>
    <vehicle id="200" depart="1101.37">
        <route edges="e2 e9 gneE3 gneE5"/>
    </vehicle>
    <vehicle id="201" depart="1106.88">
        <route edges="e3 e2 e9 gneE3 gneE5 gneE1"/>
    </vehicle>
    <vehicle id="202" depart="1112.38">
        <route edges="gneE7"/>
    </vehicle>
    <vehicle id="203" depart="1117.89">
        <route edges="gneE3 gneE5 gneE1 e8"/>
    </vehicle>
    <vehicle id="204" depart="1123.40">
        <route edges="e12 gneE12"/>
    </vehicle>
    <vehicle id="205" depart="1128.90">
        <route edges="e9 gneE3"/>
    </vehicle>
    <vehicle id="206" depart="1134.41">
        <route edges="gneE2 gneE4 gneE6 e7 e5 e12 gneE12 e10"/>
    </vehicle>
    <vehicle id="207" depart="1139.92">
        <route edges="gneE7 gneE9 e3 e12 gneE12 e10 e5 e6 gneE10 gneE8"/>
    </vehicle>
    <vehicle id="208" depart="1145.42">
        <route edges="gneE3 gneE5 gneE1 e5 e6 gneE10"/>
    </vehicle>
    <vehicle id="209" depart="1150.93">
        <route edges="e13 gneE7 gneE9 e3 e12 gneE12 e10 e5 e6 gneE10 gneE8 e11"/>
    </vehicle>
    <vehicle id="210" depart="1156.44">
        <route edges="e5 e13"/>
    </vehicle>
    <vehicle id="211" depart="1161.95">
        <route edges="gneE8 e11 e6"/>
    </vehicle>
    <vehicle id="212" depart="1167.45">
        <route edges="gneE10 gneE8 e11 e2 gneE2 gneE4 gneE6"/>
    </vehicle>
    <vehicle id="213" depart="1172.96">
        <route edges="e12 gneE12 e10"/>
    </vehicle>
    <vehicle id="214" depart="1178.47">
        <route edges="e11 e12 gneE12 e10 e5 e13 gneE7"/>
    </vehicle>
    <vehicle id="215" depart="1183.97">
        <route edges="e6 gneE10 gneE8 e11 e2 e8"/>
    </vehicle>
    <vehicle id="216" depart="1189.48">
        <route edges="gneE11 e14 e13 gneE7 gneE9 e3 e12 gneE12 e10"/>
    </vehicle>
    <vehicle id="217" depart="1194.99">
        <route edges="gneE11 e14 e2 e9 gneE3 gneE5"/>
    </vehicle>
    <vehicle id="218" depart="1200.49">
        <route edges="e12 gneE12 e10 e9 gneE3 gneE5 gneE1"/>
    </vehicle>
    <vehicle id="219" depart="1206.00">
        <route edges="gneE2 gneE4 gneE6 e7 e8 gneE11"/>
    </vehicle>
    <vehicle id="220" depart="1211.51">
        <route edges="gneE6 e7 e5 e13 gneE7 gneE9"/>
    </vehicle>
    <vehicle id="221" depart="1217.01">
        <route edges="e2 e8"/>
    </vehicle>
    <vehicle id="222" depart="1222.52">
        <route edges="e2 gneE2 gneE4 gneE6 e7 e5 e12"/>
    </vehicle>
    <vehicle id="223" depart="1228.03">
        <route edges="gneE4 gneE6 e7 e8 gneE11 e14"/>
    </vehicle>
    <vehicle id="224" depart="1233.53">
        <route edges="e8 gneE11 e14 e2 e9 gneE3 gneE5"/>
    </vehicle>
    <vehicle id="225" depart="1239.04">
        <route edges="gneE10 gneE8 e11 e2 gneE2 gneE4 gneE6 e7"/>
    </vehicle>
    <vehicle id="226" depart="1244.55">
        <route edges="e9 gneE3 gneE5 gneE1 e5"/>
    </vehicle>
    <vehicle id="227" depart="1250.05">
        <route edges="e11 e6 gneE10"/>
    </vehicle>
    <vehicle id="228" depart="1255.56">
        <route edges="e6 gneE10 gneE8 e11 e2 e8"/>
    </vehicle>
    <vehicle id="229" depart="1261.07">
        <route edges="e9 gneE3 gneE5 gneE1 e5 e12 gneE12 e10 gneE2 gneE4 gneE6"/>
    </vehicle>
    <vehicle id="230" depart="1266.58">
        <route edges="gneE5 gneE1 e5 e13 gneE7 gneE9"/>
    </vehicle>
    <vehicle id="231" depart="1272.08">
        <route edges="gneE10 gneE8 e11 e12"/>
    </vehicle>
    <vehicle id="232" depart="1277.59">
        <route edges="gneE5 gneE1 e5 e12"/>
    </vehicle>
    <vehicle id="233" depart="1283.10">
        <route edges="e8 gneE11 e14"/>
    </vehicle>
    <vehicle id="234" depart="1288.60">
        <route edges="e6 gneE10 gneE8"/>
    </vehicle>
    <vehicle id="235" depart="1294.11">
        <route edges="e7 e8 gneE11 e14 e2"/>
    </vehicle>
    <vehicle id="236" depart="1299.62">
        <route edges="gneE9 e3 e2 e8 gneE11"/>
    </vehicle>
    <vehicle id="237" depart="1305.12">
        <route edges="e10 e5 e13"/>
    </vehicle>
    <vehicle id="238" depart="1310.63">
        <route edges="gneE4 gneE6 e7 e8 gneE11"/>
    </vehicle>
    <vehicle id="239" depart="1316.14">
        <route edges="gneE3 gneE5 gneE1 e5 e6 gneE10"/>
    </vehicle>
    <vehicle id="240" depart="1321.64">
        <route edges="gneE6 e7 gneE2"/>
    </vehicle>
    <vehicle id="241" depart="1327.15">
        <route edges="gneE7 gneE9 e3 e2 gneE2 gneE4 gneE6 e7"/>
    </vehicle>
    <vehicle id="242" depart="1332.66">
        <route edges="gneE8 e11 e2 e9"/>
    </vehicle>
    <vehicle id="243" depart="1338.16">
        <route edges="gneE4 gneE6 e7 gneE2"/>
    </vehicle>
    <vehicle id="244" depart="1343.67">
        <route edges="gneE8 e11 e12"/>
    </vehicle>
    <vehicle id="245" depart="1349.18">
        <route edges="e12 gneE12 e10 gneE2 gneE4 gneE6"/>
    </vehicle>
    <vehicle id="246" depart="1354.68">
        <route edges="gneE7 gneE9 e3 e13"/>
    </vehicle>
    <vehicle id="247" depart="1360.19">
        <route edges="e3 e2 gneE2"/>
    </vehicle>
    <vehicle id="248" depart="1365.70">
        <route edges="e10 e5 e13 gneE7"/>
    </vehicle>
    <vehicle id="249" depart="1371.21">
        <route edges="e11 e12"/>
    </vehicle>
    <vehicle id="250" depart="1376.71">
        <route edges="gneE4 gneE6 e7 e5 e12 gneE12 e10 e9 gneE3 gneE5 gneE1"/>
    </vehicle>
    <vehicle id="251" depart="1382.22">
        <route edges="gneE11 e14 e6"/>
    </vehicle>
    <vehicle id="252" depart="1387.73">
        <route edges="gneE12 e10 e5 e6 gneE10 gneE8 e11"/>
    </vehicle>
    <vehicle id="253" depart="1393.23">
        <route edges="e13 gneE7 gneE9 e3 e12 gneE12 e10 e5 e6"/>
    </vehicle>
    <vehicle id="254" depart="1398.74">
        <route edges="e10 e5 e13 gneE7 gneE9 e3 e2"/>
    </vehicle>
    <vehicle id="255" depart="1404.25">
        <route edges="e8 gneE11 e14 e2 e9 gneE3 gneE5 gneE1"/>
    </vehicle>
    <vehicle id="256" depart="1409.75">
        <route edges="e8 gneE11 e14 e2"/>
    </vehicle>
    <vehicle id="257" depart="1415.26">
        <route edges="e11 e12 gneE12 e10"/>
    </vehicle>
    <vehicle id="258" depart="1420.77">
        <route edges="e5 e12 gneE12 e10 gneE2 gneE4 gneE6 e7"/>
    </vehicle>
    <vehicle id="259" depart="1426.27">
        <route edges="gneE9 e3 e2"/>
    </vehicle>
    <vehicle id="260" depart="1431.78">
        <route edges="gneE8"/>
    </vehicle>
    <vehicle id="261" depart="1437.29">
        <route edges="e11 e2 e9"/>
    </vehicle>
    <vehicle id="262" depart="1442.79">
        <route edges="gneE3 gneE5 gneE1 e8 gneE11"/>
    </vehicle>
    <vehicle id="263" depart="1448.30">
        <route edges="gneE1 e5 e12 gneE12"/>
    </vehicle>
    <vehicle id="264" depart="1453.81">
        <route edges="gneE5 gneE1 e5 e12 gneE12 e10 gneE2 gneE4 gneE6 e7"/>
    </vehicle>
    <vehicle id="265" depart="1459.32">
        <route edges="gneE3 gneE5 gneE1 e8 gneE11 e14 e2"/>
    </vehicle>
    <vehicle id="266" depart="1464.82">
        <route edges="gneE10 gneE8 e11"/>
    </vehicle>
    <vehicle id="267" depart="1470.33">
        <route edges="e6 gneE10 gneE8 e11 e12"/>
    </vehicle>
    <vehicle id="268" depart="1475.84">
        <route edges="gneE1 e8"/>
    </vehicle>
    <vehicle id="269" depart="1481.34">
        <route edges="gneE7 gneE9 e3 e12 gneE12"/>
    </vehicle>
    <vehicle id="270" depart="1486.85">
        <route edges="e12 gneE12 e10 e5 e6 gneE10 gneE8"/>
    </vehicle>
    <vehicle id="271" depart="1492.36">
        <route edges="gneE5 gneE1 e5 e12 gneE12 e10 gneE2 gneE4 gneE6"/>
    </vehicle>
    <vehicle id="272" depart="1497.86">
        <route edges="gneE9 e3 e2 gneE2"/>
    </vehicle>
    <vehicle id="273" depart="1503.37">
        <route edges="gneE11 e14 e2 e8"/>
    </vehicle>
    <vehicle id="274" depart="1508.88">
        <route edges="e8 gneE11 e14 e13"/>
    </vehicle>
    <vehicle id="275" depart="1514.38">
        <route edges="gneE3 gneE5 gneE1 e8 gneE11"/>
    </vehicle>
    <vehicle id="276" depart="1519.89">
        <route edges="e6 gneE10 gneE8 e11 e2 e8"/>
    </vehicle>
    <vehicle id="277" depart="1525.40">
        <route edges="e7 e5 e6 gneE10"/>
    </vehicle>
    <vehicle id="278" depart="1530.90">
        <route edges="e8 gneE11 e14 e13 gneE7 gneE9"/>
    </vehicle>
    <vehicle id="279" depart="1536.41">
        <route edges="gneE10 gneE8 e11 e12 gneE12 e10 e5"/>
    </vehicle>
    <vehicle id="280" depart="1541.92">
        <route edges="e9 gneE3 gneE5 gneE1 e5 e12 gneE12 e10"/>
    </vehicle>
    <vehicle id="281" depart="1547.42">
        <route edges="gneE8 e11 e2 e9 gneE3 gneE5 gneE1"/>
    </vehicle>