<?xml version="1.0" encoding="UTF-8"?>

<!-- generated on Mon Dec 21 18:06:12 2020 by Eclipse SUMO duarouter Version 1.6.0
<configuration xmlns:xsi="http://www.w3.org/2001/XMLSchema-instance" xsi:noNamespaceSchemaLocation="http://sumo.dlr.de/xsd/duarouterConfiguration.xsd">

    <input>
        <net-file value="configs/two_inter/two_inter.net.xml"/>
        <route-files value="configs/two_inter/trips.trips.xml"/>
    </input>

    <output>
        <output-file value="configs/two_inter/traffic.rou.xml"/>
        <alternatives-output value="configs/two_inter/traffic.rou.alt.xml"/>
    </output>

    <time>
        <begin value="0"/>
        <end value="300"/>
    </time>

    <report>
        <no-warnings value="true"/>
        <ignore-errors value="true"/>
        <no-step-log value="true"/>
    </report>

</configuration>
-->

<routes xmlns:xsi="http://www.w3.org/2001/XMLSchema-instance" xsi:noNamespaceSchemaLocation="http://sumo.dlr.de/xsd/routes_file.xsd">
    <vehicle id="0" depart="0.00">
        <route edges="e3 e2 gneE2"/>
    </vehicle>
    <vehicle id="1" depart="0.63">
        <route edges="e14 e13 gneE7 gneE9 e3 e12 gneE12"/>
    </vehicle>
    <vehicle id="2" depart="1.27">
        <route edges="e7 e8 gneE11 e14"/>
    </vehicle>
    <vehicle id="3" depart="1.90">
        <route edges="gneE11 e14 e13 gneE7"/>
    </vehicle>
    <vehicle id="4" depart="2.54">
        <route edges="gneE9 e3 e12 gneE12 e10"/>
    </vehicle>
    <vehicle id="5" depart="3.17">
        <route edges="gneE12 e10 gneE2 gneE4"/>
    </vehicle>
    <vehicle id="6" depart="3.81">
        <route edges="e8 gneE11 e14 e2"/>
    </vehicle>
    <vehicle id="7" depart="4.44">
        <route edges="e6 gneE10 gneE8 e11 e2 gneE2 gneE4 gneE6"/>
    </vehicle>
    <vehicle id="8" depart="5.07">
        <route edges="e8 gneE11 e14 e2 gneE2"/>
    </vehicle>
    <vehicle id="9" depart="5.71">
        <route edges="e12 gneE12 e10 gneE2 gneE4 gneE6"/>
    </vehicle>
    <vehicle id="10" depart="6.34">
        <route edges="e6 gneE10 gneE8"/>
    </vehicle>
    <vehicle id="11" depart="6.98">
        <route edges="gneE10 gneE8 e11 e2 e9"/>
    </vehicle>
    <vehicle id="12" depart="7.61">
        <route edges="e3 e13 gneE7 gneE9"/>
    </vehicle>
    <vehicle id="13" depart="8.25">
        <route edges="gneE9 e3 e2"/>
    </vehicle>
    <vehicle id="14" depart="8.88">
        <route edges="gneE10 gneE8 e11 e12 gneE12 e10"/>
    </vehicle>
    <vehicle id="15" depart="9.51">
        <route edges="gneE10 gneE8 e11 e2 e9"/>
    </vehicle>
    <vehicle id="16" depart="10.15">
        <route edges="gneE10 gneE8 e11 e2 e8 gneE11"/>
    </vehicle>
    <vehicle id="17" depart="10.78">
        <route edges="gneE5 gneE1 e5 e13 gneE7"/>
    </vehicle>
    <vehicle id="18" depart="11.42">
        <route edges="gneE12 e10 e5 e13 gneE7 gneE9 e3 e2"/>
    </vehicle>
    <vehicle id="19" depart="12.05">
        <route edges="e13 gneE7 gneE9 e3 e12 gneE12 e10 e5 e6 gneE10"/>
    </vehicle>
    <vehicle id="20" depart="12.68">
        <route edges="e5 e13 gneE7 gneE9 e3 e2 e8 gneE11"/>
    </vehicle>
    <vehicle id="21" depart="13.32">
        <route edges="e8 gneE11"/>
    </vehicle>
    <vehicle id="22" depart="13.95">
        <route edges="gneE7 gneE9 e3 e2 e9 gneE3"/>
    </vehicle>
    <vehicle id="23" depart="14.59">
        <route edges="e8 gneE11 e14 e2 e9"/>
    </vehicle>
    <vehicle id="24" depart="15.22">
        <route edges="e7 e5 e12 gneE12"/>
    </vehicle>
    <vehicle id="25" depart="15.86">
        <route edges="gneE12 e10 gneE2 gneE4"/>
    </vehicle>
    <vehicle id="26" depart="16.49">
        <route edges="e10 e5 e13"/>
    </vehicle>
    <vehicle id="27" depart="17.12">
        <route edges="e9 gneE3 gneE5 gneE1 e5 e12 gneE12 e10 gneE2 gneE4 gneE6"/>
    </vehicle>
    <vehicle id="28" depart="17.76">
        <route edges="gneE7 gneE9 e3 e2 gneE2 gneE4 gneE6"/>
    </vehicle>
    <vehicle id="29" depart="18.39">
        <route edges="e13 gneE7 gneE9 e3 e2 e9"/>
    </vehicle>
    <vehicle id="30" depart="19.03">
        <route edges="gneE11 e14 e6 gneE10 gneE8"/>
    </vehicle>
    <vehicle id="31" depart="19.66">
        <route edges="gneE6 e7 e5 e12 gneE12 e10 e9 gneE3 gneE5 gneE1"/>
    </vehicle>
    <vehicle id="32" depart="20.30">
        <route edges="gneE6 e7 e5 e12 gneE12 e10 e9 gneE3"/>
    </vehicle>
    <vehicle id="33" depart="20.93">
        <route edges="gneE8"/>
    </vehicle>
    <vehicle id="34" depart="21.56">
        <route edges="gneE8 e11 e2 e9 gneE3 gneE5 gneE1"/>
    </vehicle>
    <vehicle id="35" depart="22.20">
        <route edges="e13 gneE7 gneE9 e3 e12 gneE12"/>
    </vehicle>
    <vehicle id="36" depart="22.83">
        <route edges="gneE9 e3 e12 gneE12 e10 e5 e6 gneE10 gneE8 e11"/>
    </vehicle>
    <vehicle id="37" depart="23.47">
        <route edges="e6 gneE10 gneE8 e11 e2 e9 gneE3 gneE5 gneE1"/>
    </vehicle>
    <vehicle id="38" depart="24.10">
        <route edges="e3 e12 gneE12 e10 e5"/>
    </vehicle>
    <vehicle id="39" depart="24.74">
        <route edges="e13 gneE7 gneE9 e3 e2 e9 gneE3 gneE5 gneE1"/>
    </vehicle>
    <vehicle id="40" depart="25.37">
        <route edges="gneE11 e14 e13"/>
    </vehicle>
    <vehicle id="41" depart="26.00">
        <route edges="gneE11 e14 e6 gneE10 gneE8"/>
    </vehicle>
    <vehicle id="42" depart="26.64">
        <route edges="e12 gneE12 e10 e5 e13 gneE7"/>
    </vehicle>
    <vehicle id="43" depart="27.27">
        <route edges="e10 e9 gneE3 gneE5 gneE1"/>
    </vehicle>
    <vehicle id="44" depart="27.91">
        <route edges="e11 e2 gneE2 gneE4"/>
    </vehicle>
    <vehicle id="45" depart="28.54">
        <route edges="gneE2 gneE4 gneE6 e7 e5 e12 gneE12"/>
    </vehicle>
    <vehicle id="46" depart="29.18">
        <route edges="e8 gneE11 e14 e6 gneE10 gneE8"/>
    </vehicle>
    <vehicle id="47" depart="29.81">
        <route edges="gneE10 gneE8 e11"/>
    </vehicle>
    <vehicle id="48" depart="30.44">
        <route edges="gneE1 e5 e12 gneE12 e10 gneE2 gneE4 gneE6 e7"/>
    </vehicle>
    <vehicle id="49" depart="31.08">
        <route edges="gneE9 e3 e2 e8"/>
    </vehicle>
    <vehicle id="50" depart="31.71">
        <route edges="e7 e5 e12 gneE12 e10"/>
    </vehicle>
    <vehicle id="51" depart="32.35">
        <route edges="e8"/>
    </vehicle>
    <vehicle id="52" depart="32.98">
        <route edges="e2 gneE2 gneE4 gneE6 e7 e5 e12 gneE12"/>
    </vehicle>
    <vehicle id="53" depart="33.62">
        <route edges="gneE6 e7 e8 gneE11 e14"/>
    </vehicle>
    <vehicle id="54" depart="34.25">
        <route edges="gneE8 e11 e2 e8"/>
    </vehicle>
    <vehicle id="55" depart="34.88">
        <route edges="gneE4 gneE6 e7 e5 e12 gneE12 e10 e9 gneE3"/>
    </vehicle>
    <vehicle id="56" depart="35.52">
        <route edges="gneE8 e11 e12 gneE12"/>
    </vehicle>
    <vehicle id="57" depart="36.15">
        <route edges="e10 e9 gneE3 gneE5"/>
    </vehicle>
    <vehicle id="58" depart="36.79">
        <route edges="e11 e2 e8"/>
    </vehicle>
    <vehicle id="59" depart="37.42">
        <route edges="gneE1 e5 e12"/>
    </vehicle>
    <vehicle id="60" depart="38.05">
        <route edges="e3 e2 gneE2 gneE4 gneE6 e7"/>
    </vehicle>
    <vehicle id="61" depart="38.69">
        <route edges="e8 gneE11 e14 e2 e9 gneE3 gneE5"/>
    </vehicle>
    <vehicle id="62" depart="39.32">
        <route edges="gneE2 gneE4 gneE6 e7 e5 e6 gneE10 gneE8 e11"/>
    </vehicle>
    <vehicle id="63" depart="39.96">
        <route edges="gneE11 e14 e2 gneE2 gneE4"/>
    </vehicle>
    <vehicle id="64" depart="40.59">
        <route edges="e5 e12 gneE12 e10 gneE2 gneE4 gneE6"/>
    </vehicle>
    <vehicle id="65" depart="41.23">
        <route edges="gneE11 e14 e6 gneE10 gneE8 e11"/>
    </vehicle>
    <vehicle id="66" depart="41.86">
        <route edges="gneE2 gneE4 gneE6 e7 e5 e6 gneE10 gneE8"/>
    </vehicle>
    <vehicle id="67" depart="42.49">
        <route edges="gneE1 e5 e12 gneE12 e10"/>
    </vehicle>
    <vehicle id="68" depart="43.13">
        <route edges="e9 gneE3 gneE5 gneE1 e5 e12 gneE12 e10 gneE2 gneE4"/>
    </vehicle>
    <vehicle id="69" depart="43.76">
        <route edges="gneE11 e14 e2 gneE2 gneE4"/>
    </vehicle>
    <vehicle id="70" depart="44.40">
        <route edges="gneE2 gneE4 gneE6 e7 e5 e13 gneE7 gneE9 e3"/>
    </vehicle>
    <vehicle id="71" depart="45.03">
        <route edges="gneE5 gneE1"/>
    </vehicle>
    <vehicle id="72" depart="45.67">
        <route edges="e13 gneE7 gneE9 e3 e2 e8 gneE11 e14"/>
    </vehicle>
    <vehicle id="73" depart="46.30">
        <route edges="gneE8 e11 e2 gneE2 gneE4"/>
    </vehicle>
    <vehicle id="74" depart="46.93">
        <route edges="e10 e5 e6 gneE10 gneE8"/>
    </vehicle>
    <vehicle id="75" depart="47.57">
        <route edges="e11 e12"/>
    </vehicle>
    <vehicle id="76" depart="48.20">
        <route edges="gneE1 e5 e12"/>
    </vehicle>
    <vehicle id="77" depart="48.84">
        <route edges="gneE1 e5 e12 gneE12"/>
    </vehicle>
    <vehicle id="78" depart="49.47">
        <route edges="gneE5 gneE1 e5 e13 gneE7 gneE9 e3"/>
    </vehicle>
    <vehicle id="79" depart="50.11">
        <route edges="gneE6 e7 e5 e13"/>
    </vehicle>
    <vehicle id="80" depart="50.74">
        <route edges="e11 e2 gneE2"/>
    </vehicle>
    <vehicle id="81" depart="51.37">
        <route edges="gneE3 gneE5"/>
    </vehicle>
    <vehicle id="82" depart="52.01">
        <route edges="e14 e13"/>
    </vehicle>
    <vehicle id="83" depart="52.64">
        <route edges="e14 e2 gneE2 gneE4 gneE6 e7"/>
    </vehicle>
    <vehicle id="84" depart="53.28">
        <route edges="e13 gneE7 gneE9 e3 e2 e9 gneE3 gneE5"/>
    </vehicle>
    <vehicle id="85" depart="53.91">
        <route edges="gneE12 e10 e5 e6"/>
    </vehicle>
    <vehicle id="86" depart="54.55">
        <route edges="e5 e12 gneE12 e10 e9"/>
    </vehicle>
    <vehicle id="87" depart="55.18">
        <route edges="e9 gneE3 gneE5 gneE1 e8 gneE11 e14"/>
    </vehicle>
    <vehicle id="88" depart="55.81">
        <route edges="gneE4 gneE6"/>
    </vehicle>
    <vehicle id="89" depart="56.45">
        <route edges="e12 gneE12 e10 e5"/>
    </vehicle>
    <vehicle id="90" depart="57.08">
        <route edges="e2 gneE2 gneE4 gneE6 e7"/>
    </vehicle>
    <vehicle id="91" depart="57.72">
        <route edges="gneE12 e10 e5 e12"/>
    </vehicle>
    <vehicle id="92" depart="58.35">
        <route edges="e9 gneE3"/>
    </vehicle>
    <vehicle id="93" depart="58.99">
        <route edges="gneE5 gneE1 e5 e13 gneE7 gneE9"/>
    </vehicle>
    <vehicle id="94" depart="59.62">
        <route edges="e11 e12 gneE12 e10 e5 e13 gneE7 gneE9"/>
    </vehicle>
    <vehicle id="95" depart="60.25">
        <route edges="gneE9 e3 e2 e8 gneE11"/>
    </vehicle>
    <vehicle id="96" depart="60.89">
        <route edges="gneE5 gneE1 e5 e12 gneE12 e10 gneE2 gneE4 gneE6 e7"/>
    </vehicle>
    <vehicle id="97" depart="61.52">
        <route edges="e12 gneE12 e10 e5 e13 gneE7 gneE9 e3"/>
    </vehicle>
    <vehicle id="98" depart="62.16">
        <route edges="e2 e8 gneE11 e14 e6 gneE10 gneE8 e11"/>
    </vehicle>
    <vehicle id="99" depart="62.79">
        <route edges="gneE9 e3 e2 e9 gneE3 gneE5 gneE1"/>
    </vehicle>
    <vehicle id="100" depart="63.42">
        <route edges="gneE12 e10 e5 e13 gneE7"/>
    </vehicle>
    <vehicle id="101" depart="64.06">
        <route edges="e5 e12 gneE12 e10 gneE2 gneE4 gneE6"/>
    </vehicle>
    <vehicle id="102" depart="64.69">
        <route edges="e2 e8 gneE11 e14 e13 gneE7 gneE9"/>
    </vehicle>
    <vehicle id="103" depart="65.33">
        <route edges="gneE3 gneE5 gneE1 e5 e6"/>
    </vehicle>
    <vehicle id="104" depart="65.96">
        <route edges="gneE4 gneE6 e7 e5 e12 gneE12"/>
    </vehicle>
    <vehicle id="105" depart="66.60">
        <route edges="gneE3 gneE5 gneE1 e5 e6 gneE10"/>
    </vehicle>
    <vehicle id="106" depart="67.23">
        <route edges="gneE7 gneE9 e3 e2 gneE2 gneE4 gneE6 e7"/>
    </vehicle>
    <vehicle id="107" depart="67.86">
        <route edges="e9 gneE3 gneE5 gneE1 e8 gneE11"/>
    </vehicle>
    <vehicle id="108" depart="68.50">
        <route edges="gneE11 e14 e2"/>
    </vehicle>
    <vehicle id="109" depart="69.13">
        <route edges="e12 gneE12 e10 e9 gneE3"/>
    </vehicle>
    <vehicle id="110" depart="69.77">
        <route edges="e6 gneE10 gneE8 e11 e2"/>
    </vehicle>
    <vehicle id="111" depart="70.40">
        <route edges="e9 gneE3 gneE5 gneE1 e8 gneE11 e14"/>
    </vehicle>
    <vehicle id="112" depart="71.04">
        <route edges="e12 gneE12 e10 e9 gneE3 gneE5 gneE1"/>
    </vehicle>
    <vehicle id="113" depart="71.67">
        <route edges="gneE12 e10 gneE2 gneE4 gneE6 e7"/>
    </vehicle>
    <vehicle id="114" depart="72.30">
        <route edges="e9 gneE3 gneE5 gneE1 e5 e12 gneE12 e10"/>
    </vehicle>
    <vehicle id="115" depart="72.94">
        <route edges="gneE4 gneE6 e7 e5 e12 gneE12 e10 e9 gneE3 gneE5 gneE1"/>
    </vehicle>
    <vehicle id="116" depart="73.57">
        <route edges="e14 e2 e9"/>
    </vehicle>
    <vehicle id="117" depart="74.21">
        <route edges="e14 e2 gneE2"/>
    </vehicle>
    <vehicle id="118" depart="74.84">
        <route edges="gneE3 gneE5 gneE1 e5 e12 gneE12 e10"/>
    </vehicle>
    <vehicle id="119" depart="75.48">
        <route edges="e11"/>
    </vehicle>
    <vehicle id="120" depart="76.11">
        <route edges="gneE11 e14 e2 gneE2 gneE4 gneE6"/>
    </vehicle>
    <vehicle id="121" depart="76.74">
        <route edges="gneE10 gneE8 e11 e12 gneE12 e10 e5"/>
    </vehicle>
    <vehicle id="122" depart="77.38">
        <route edges="e7 e8 gneE11"/>
    </vehicle>
    <vehicle id="123" depart="78.01">
        <route edges="e6 gneE10 gneE8 e11 e12"/>
    </vehicle>
    <vehicle id="124" depart="78.65">
        <route edges="gneE12"/>
    </vehicle>
    <vehicle id="125" depart="79.28">
        <route edges="gneE9 e3 e2 e9"/>
    </vehicle>
    <vehicle id="126" depart="79.92">
        <route edges="e3 e2 e8 gneE11"/>
    </vehicle>
    <vehicle id="127" depart="80.55">
        <route edges="e9 gneE3 gneE5 gneE1 e5 e12 gneE12"/>
    </vehicle>
    <vehicle id="128" depart="81.18">
        <route edges="e10 e5 e13"/>
    </vehicle>
    <vehicle id="129" depart="81.82">
        <route edges="gneE1 e5 e13 gneE7 gneE9 e3"/>
    </vehicle>
    <vehicle id="130" depart="82.45">
        <route edges="e3 e2 gneE2"/>
    </vehicle>
    <vehicle id="131" depart="83.09">
        <route edges="gneE6"/>
    </vehicle>
    <vehicle id="132" depart="83.72">
        <route edges="e12 gneE12 e10 gneE2 gneE4 gneE6 e7 e8 gneE11"/>
    </vehicle>
    <vehicle id="133" depart="84.36">
        <route edges="gneE1 e8 gneE11 e14 e2"/>
    </vehicle>
    <vehicle id="134" depart="84.99">
        <route edges="e14 e13 gneE7"/>
    </vehicle>
    <vehicle id="135" depart="85.62">
        <route edges="e5 e12 gneE12 e10 e9 gneE3"/>
    </vehicle>
    <vehicle id="136" depart="86.26">
        <route edges="gneE6 e7 gneE2"/>
    </vehicle>
    <vehicle id="137" depart="86.89">
        <route edges="gneE12 e10 e5"/>
    </vehicle>
    <vehicle id="138" depart="87.53">
        <route edges="e11 e2 e9 gneE3"/>
    </vehicle>
    <vehicle id="139" depart="88.16">
        <route edges="e6 gneE10 gneE8 e11 e2 gneE2 gneE4"/>
    </vehicle>
    <vehicle id="140" depart="88.79">
        <route edges="e11 e2 e9"/>
    </vehicle>
    <vehicle id="141" depart="89.43">
        <route edges="e14 e2 gneE2 gneE4"/>
    </vehicle>
    <vehicle id="142" depart="90.06">
        <route edges="gneE12 e10 e5 e13 gneE7 gneE9"/>
    </vehicle>
    <vehicle id="143" depart="90.70">
        <route edges="e12 gneE12 e10 e9"/>
    </vehicle>
    <vehicle id="144" depart="91.33">
        <route edges="gneE10 gneE8 e11 e12 gneE12"/>
    </vehicle>
    <vehicle id="145" depart="91.97">
        <route edges="e3 e2 e8 gneE11"/>
    </vehicle>
    <vehicle id="146" depart="92.60">
        <route edges="gneE5 gneE1 e9"/>
    </vehicle>
    <vehicle id="147" depart="93.23">
        <route edges="gneE2 gneE4 gneE6 e7 e8 gneE11 e14"/>
    </vehicle>
    <vehicle id="148" depart="93.87">
        <route edges="gneE2 gneE4 gneE6 e7 e8"/>
    </vehicle>
    <vehicle id="149" depart="94.50">
        <route edges="e5"/>
    </vehicle>
    <vehicle id="150" depart="95.14">
        <route edges="gneE8 e11 e12 gneE12 e10 e5 e13"/>
    </vehicle>
    <vehicle id="151" depart="95.77">
        <route edges="e10 e5 e13 gneE7 gneE9 e3"/>
    </vehicle>
    <vehicle id="152" depart="96.41">
        <route edges="gneE5 gneE1 e8 gneE11 e14 e2"/>
    </vehicle>
    <vehicle id="153" depart="97.04">
        <route edges="e14 e2 e8"/>
    </vehicle>
    <vehicle id="154" depart="97.67">
        <route edges="gneE3 gneE5 gneE1 e5 e12"/>
    </vehicle>
    <vehicle id="155" depart="98.31">
        <route edges="gneE4 gneE6 e7 e5 e12 gneE12 e10"/>
    </vehicle>
    <vehicle id="156" depart="98.94">
        <route edges="e7 e5 e6"/>
    </vehicle>
    <vehicle id="157" depart="99.58">
        <route edges="gneE10 gneE8 e11 e12 gneE12 e10 e5 e13 gneE7 gneE9 e3"/>
    </vehicle>
    <vehicle id="158" depart="100.21">
        <route edges="gneE10 gneE8 e11 e2 gneE2 gneE4"/>
    </vehicle>
    <vehicle id="159" depart="100.85">
        <route edges="gneE12"/>
    </vehicle>
    <vehicle id="160" depart="101.48">
        <route edges="gneE3 gneE5 gneE1 e8 gneE11"/>
    </vehicle>
    <vehicle id="161" depart="102.11">
        <route edges="e8 gneE11 e14 e2 gneE2 gneE4 gneE6"/>
    </vehicle>
    <vehicle id="162" depart="102.75">
        <route edges="e14 e6 gneE10 gneE8 e11"/>
    </vehicle>
    <vehicle id="163" depart="103.38">
        <route edges="gneE10 gneE8 e11 e2 gneE2 gneE4 gneE6"/>
    </vehicle>
    <vehicle id="164" depart="104.02">
        <route edges="gneE5 gneE1 e9 gneE3"/>
    </vehicle>
    <vehicle id="165" depart="104.65">
        <route edges="gneE10 gneE8 e11 e2 e8 gneE11 e14"/>
    </vehicle>
    <vehicle id="166" depart="105.29">
        <route edges="e12 gneE12 e10 e9 gneE3 gneE5"/>
    </vehicle>
    <vehicle id="167" depart="105.92">
        <route edges="e6 gneE10 gneE8 e11 e12 gneE12"/>
    </vehicle>
    <vehicle id="168" depart="106.55">
        <route edges="e12 gneE12 e10 e5 e6"/>
    </vehicle>
    <vehicle id="169" depart="107.19">
        <route edges="e12 gneE12 e10 e5 e13 gneE7 gneE9 e3 e2"/>
    </vehicle>
    <vehicle id="170" depart="107.82">
        <route edges="gneE5 gneE1 e8 gneE11 e14"/>
    </vehicle>
    <vehicle id="171" depart="108.46">
        <route edges="gneE9 e3 e13 gneE7"/>
    </vehicle>
    <vehicle id="172" depart="109.09">
        <route edges="e6 gneE10 gneE8 e11 e2 e8 gneE11 e14"/>
    </vehicle>
    <vehicle id="173" depart="109.73">
        <route edges="gneE11 e14 e2 gneE2 gneE4 gneE6 e7 e5"/>
    </vehicle>
    <vehicle id="174" depart="110.36">
        <route edges="gneE6 e7"/>
    </vehicle>
    <vehicle id="175" depart="110.99">
        <route edges="e14 e2 e9 gneE3 gneE5"/>
    </vehicle>
    <vehicle id="176" depart="111.63">
        <route edges="gneE9 e3 e12 gneE12 e10 e5 e6 gneE10"/>
    </vehicle>
    <vehicle id="177" depart="112.26">
        <route edges="e5 e13 gneE7 gneE9 e3"/>
    </vehicle>
    <vehicle id="178" depart="112.90">
        <route edges="gneE5 gneE1 e5 e12 gneE12 e10"/>
    </vehicle>
    <vehicle id="179" depart="113.53">
        <route edges="gneE1 e5 e6 gneE10"/>
    </vehicle>
    <vehicle id="180" depart="114.16">
        <route edges="gneE12 e10 e5 e13 gneE7 gneE9"/>
    </vehicle>
    <vehicle id="181" depart="114.80">
        <route edges="e14 e6 gneE10 gneE8 e11"/>
    </vehicle>
    <vehicle id="182" depart="115.43">
        <route edges="gneE8 e11 e2 e8"/>
    </vehicle>
    <vehicle id="183" depart="116.07">
        <route edges="e8 gneE11 e14 e2 e9"/>
    </vehicle>
    <vehicle id="184" depart="116.70">
        <route edges="e7 e5"/>
    </vehicle>
    <vehicle id="185" depart="117.34">
        <route edges="e3 e12 gneE12 e10 e5 e6 gneE10 gneE8"/>
    </vehicle>
    <vehicle id="186" depart="117.97">
        <route edges="e6 gneE10 gneE8 e11 e12 gneE12 e10 e5 e13 gneE7 gneE9 e3"/>
    </vehicle>
    <vehicle id="187" depart="118.60">
        <route edges="e12 gneE12 e10 e5 e13 gneE7 gneE9 e3"/>
    </vehicle>
    <vehicle id="188" depart="119.24">
        <route edges="e9 gneE3 gneE5 gneE1 e5 e13"/>
    </vehicle>
    <vehicle id="189" depart="119.87">
        <route edges="e6 gneE10 gneE8 e11 e12 gneE12"/>
    </vehicle>
    <vehicle id="190" depart="120.51">
        <route edges="gneE7 gneE9 e3 e12"/>
    </vehicle>
    <vehicle id="191" depart="121.14">
        <route edges="gneE8 e11 e12 gneE12 e10 e5 e13 gneE7 gneE9 e3"/>
    </vehicle>
    <vehicle id="192" depart="121.78">
        <route edges="gneE12 e10 e9 gneE3 gneE5"/>
    </vehicle>
    <vehicle id="193" depart="122.41">
        <route edges="gneE5 gneE1"/>
    </vehicle>
    <vehicle id="194" depart="123.04">
        <route edges="gneE9 e3 e12 gneE12 e10 e5 e6 gneE10 gneE8"/>
    </vehicle>
    <vehicle id="195" depart="123.68">
        <route edges="gneE7 gneE9 e3 e12 gneE12 e10"/>
    </vehicle>
    <vehicle id="196" depart="124.31">
        <route edges="e6 gneE10 gneE8 e11 e12"/>
    </vehicle>
    <vehicle id="197" depart="124.95">
        <route edges="e8 gneE11 e14"/>
    </vehicle>
    <vehicle id="198" depart="125.58">
        <route edges="gneE11 e14 e2 e9 gneE3 gneE5"/>
    </vehicle>
    <vehicle id="199" depart="126.22">
        <route edges="e3 e2 gneE2 gneE4"/>
    </vehicle>
    <vehicle id="200" depart="126.85">
        <route edges="gneE12 e10 e9 gneE3"/>
    </vehicle>
    <vehicle id="201" depart="127.48">
        <route edges="gneE12 e10 e5 e13 gneE7 gneE9"/>
    </vehicle>
    <vehicle id="202" depart="128.12">
        <route edges="e2 e8 gneE11 e14 e6 gneE10"/>
    </vehicle>
    <vehicle id="203" depart="128.75">
        <route edges="gneE9"/>
    </vehicle>
    <vehicle id="204" depart="129.39">
        <route edges="e14 e6 gneE10 gneE8 e11"/>
    </vehicle>
    <vehicle id="205" depart="130.02">
        <route edges="e8 gneE11 e14 e6"/>
    </vehicle>
    <vehicle id="206" depart="130.66">
        <route edges="gneE12 e10 gneE2 gneE4 gneE6 e7 e8"/>
    </vehicle>
    <vehicle id="207" depart="131.29">
        <route edges="e5 e12 gneE12 e10 gneE2"/>
    </vehicle>
    <vehicle id="208" depart="131.92">
        <route edges="e10 gneE2"/>
    </vehicle>
    <vehicle id="209" depart="132.56">
        <route edges="gneE2 gneE4 gneE6 e7 e5 e12 gneE12 e10 e9 gneE3 gneE5"/>
    </vehicle>
    <vehicle id="210" depart="133.19">
        <route edges="gneE6 e7 e5 e6"/>
    </vehicle>
    <vehicle id="211" depart="133.83">
        <route edges="e6 gneE10 gneE8 e11 e12 gneE12 e10 e5 e13 gneE7"/>
    </vehicle>
    <vehicle id="212" depart="134.46">
        <route edges="e7 gneE2 gneE4"/>
    </vehicle>
    <vehicle id="213" depart="135.10">
        <route edges="gneE11 e14 e2 gneE2 gneE4 gneE6 e7 e5"/>
    </vehicle>
    <vehicle id="214" depart="135.73">
        <route edges="gneE8 e11 e2 gneE2"/>
    </vehicle>
    <vehicle id="215" depart="136.36">
        <route edges="e9 gneE3 gneE5 gneE1 e5 e13 gneE7 gneE9 e3"/>
    </vehicle>
    <vehicle id="216" depart="137.00">
        <route edges="gneE9 e3 e2 e8 gneE11"/>
    </vehicle>
    <vehicle id="217" depart="137.63">
        <route edges="gneE6 e7 e5 e12"/>
    </vehicle>
    <vehicle id="218" depart="138.27">
        <route edges="gneE1 e8"/>
    </vehicle>
    <vehicle id="219" depart="138.90">
        <route edges="e9 gneE3 gneE5 gneE1 e5 e12 gneE12 e10"/>
    </vehicle>
    <vehicle id="220" depart="139.53">
        <route edges="gneE4 gneE6 e7 e5 e13 gneE7 gneE9 e3"/>
    </vehicle>
    <vehicle id="221" depart="140.17">
        <route edges="e8 gneE11 e14 e13 gneE7"/>
    </vehicle>
    <vehicle id="222" depart="140.80">
        <route edges="e5 e13 gneE7 gneE9 e3 e2"/>
    </vehicle>
    <vehicle id="223" depart="141.44">
        <route edges="e6 gneE10"/>
    </vehicle>
    <vehicle id="224" depart="142.07">
        <route edges="e6 gneE10 gneE8 e11 e12"/>
    </vehicle>
    <vehicle id="225" depart="142.71">
        <route edges="e8 gneE11 e14 e13 gneE7 gneE9"/>
    </vehicle>
    <vehicle id="226" depart="143.34">
        <route edges="e7 e8 gneE11"/>
    </vehicle>
    <vehicle id="227" depart="143.97">
        <route edges="e7 e5 e6 gneE10 gneE8"/>
    </vehicle>
    <vehicle id="228" depart="144.61">
        <route edges="e6 gneE10 gneE8 e11 e12 gneE12 e10 e5"/>
    </vehicle>
    <vehicle id="229" depart="145.24">
        <route edges="gneE11 e14 e13 gneE7 gneE9 e3 e12 gneE12 e10"/>
    </vehicle>
    <vehicle id="230" depart="145.88">
        <route edges="gneE5 gneE1 e5 e12"/>
    </vehicle>
    <vehicle id="231" depart="146.51">
        <route edges="e7 e5 e12 gneE12 e10 e9 gneE3 gneE5"/>
    </vehicle>
    <vehicle id="232" depart="147.15">
        <route edges="e7 e5 e12 gneE12 e10"/>
    </vehicle>
    <vehicle id="233" depart="147.78">
        <route edges="gneE5 gneE1 e9 gneE3"/>
    </vehicle>
    <vehicle id="234" depart="148.41">
        <route edges="gneE9 e3 e2 gneE2 gneE4 gneE6 e7"/>
    </vehicle>
    <vehicle id="235" depart="149.05">
        <route edges="e10 e5 e12"/>
    </vehicle>
    <vehicle id="236" depart="149.68">
        <route edges="gneE11 e14 e2 gneE2"/>
    </vehicle>
    <vehicle id="237" depart="150.32">
        <route edges="e12 gneE12 e10 gneE2 gneE4 gneE6 e7 e8 gneE11"/>
    </vehicle>
    <vehicle id="238" depart="150.95">
        <route edges="e3 e12 gneE12 e10 e5 e6"/>
    </vehicle>
    <vehicle id="239" depart="151.59">
        <route edges="gneE2 gneE4 gneE6 e7 e5 e12 gneE12 e10"/>
    </vehicle>
    <vehicle id="240" depart="152.22">
        <route edges="gneE8 e11 e2 gneE2 gneE4 gneE6 e7"/>
    </vehicle>
    <vehicle id="241" depart="152.85">
        <route edges="e12 gneE12 e10 e5 e6 gneE10 gneE8"/>
    </vehicle>
    <vehicle id="242" depart="153.49">
        <route edges="e5 e6 gneE10 gneE8 e11"/>
    </vehicle>
    <vehicle id="243" depart="154.12">
        <route edges="e3 e2"/>
    </vehicle>
    <vehicle id="244" depart="154.76">
        <route edges="e8 gneE11"/>
    </vehicle>
    <vehicle id="245" depart="155.39">
        <route edges="gneE9 e3 e2 e8 gneE11 e14"/>
    </vehicle>
    <vehicle id="246" depart="156.03">
        <route edges="gneE3 gneE5 gneE1 e5 e6 gneE10 gneE8"/>
    </vehicle>
    <vehicle id="247" depart="156.66">
        <route edges="gneE7"/>
    </vehicle>
    <vehicle id="248" depart="157.29">
        <route edges="gneE2 gneE4 gneE6 e7 e5 e6"/>
    </vehicle>
    <vehicle id="249" depart="157.93">
        <route edges="gneE6 e7 e5 e6 gneE10 gneE8 e11"/>
    </vehicle>
    <vehicle id="250" depart="158.56">
        <route edges="e3 e12 gneE12 e10 e5 e6 gneE10"/>
    </vehicle>
    <vehicle id="251" depart="159.20">
        <route edges="gneE6 e7 e5 e12 gneE12"/>
    </vehicle>
    <vehicle id="252" depart="159.83">
        <route edges="e2 e8 gneE11 e14 e13 gneE7"/>
    </vehicle>
    <vehicle id="253" depart="160.47">
        <route edges="gneE2 gneE4 gneE6 e7 e5 e6 gneE10"/>
    </vehicle>
    <vehicle id="254" depart="161.10">
        <route edges="e9 gneE3 gneE5 gneE1 e5 e6 gneE10 gneE8 e11"/>
    </vehicle>
    <vehicle id="255" depart="161.73">
        <route edges="e5 e12 gneE12 e10"/>
    </vehicle>
    <vehicle id="256" depart="162.37">
        <route edges="gneE4 gneE6 e7 e5"/>
    </vehicle>
    <vehicle id="257" depart="163.00">
        <route edges="e10 gneE2 gneE4 gneE6 e7 e8 gneE11"/>
    </vehicle>
    <vehicle id="258" depart="163.64">
        <route edges="gneE5 gneE1 e5 e12 gneE12 e10 gneE2 gneE4"/>
    </vehicle>
    <vehicle id="259" depart="164.27">
        <route edges="e9 gneE3 gneE5 gneE1 e5 e13 gneE7 gneE9"/>
    </vehicle>
    <vehicle id="260" depart="164.90">
        <route edges="gneE8 e11 e12 gneE12 e10 e5 e13"/>
    </vehicle>
    <vehicle id="261" depart="165.54">
        <route edges="gneE12"/>
    </vehicle>
    <vehicle id="262" depart="166.17">
        <route edges="gneE9 e3 e13"/>
    </vehicle>
    <vehicle id="263" depart="166.81">
        <route edges="e5 e12 gneE12 e10 gneE2 gneE4 gneE6 e7"/>
    </vehicle>
    <vehicle id="264" depart="167.44">
        <route edges="e6 gneE10 gneE8 e11 e2 e9 gneE3 gneE5"/>
    </vehicle>
    <vehicle id="265" depart="168.08">
        <route edges="e12 gneE12 e10 e5 e13 gneE7 gneE9 e3 e2"/>
    </vehicle>
    <vehicle id="266" depart="168.71">
        <route edges="e8 gneE11 e14 e6"/>
    </vehicle>
    <vehicle id="267" depart="169.34">
        <route edges="e9 gneE3 gneE5 gneE1 e5 e6 gneE10 gneE8 e11"/>
    </vehicle>
    <vehicle id="268" depart="169.98">
        <route edges="e10 gneE2 gneE4 gneE6"/>
    </vehicle>
    <vehicle id="269" depart="170.61">
        <route edges="gneE9 e3 e2 e9 gneE3 gneE5"/>
    </vehicle>
    <vehicle id="270" depart="171.25">
        <route edges="e3 e2 e8 gneE11"/>
    </vehicle>
    <vehicle id="271" depart="171.88">
        <route edges="e2 gneE2 gneE4 gneE6 e7 e5 e12 gneE12 e10"/>
    </vehicle>
    <vehicle id="272" depart="172.52">
        <route edges="gneE6 e7 e5"/>
    </vehicle>
    <vehicle id="273" depart="173.15">
        <route edges="e7 gneE2 gneE4"/>
    </vehicle>
    <vehicle id="274" depart="173.78">
        <route edges="e11 e12 gneE12 e10 e5"/>
    </vehicle>
    <vehicle id="275" depart="174.42">
        <route edges="gneE1 e8 gneE11 e14"/>
    </vehicle>
    <vehicle id="276" depart="175.05">
        <route edges="e3 e2 gneE2 gneE4 gneE6"/>
    </vehicle>
    <vehicle id="277" depart="175.69">
        <route edges="gneE7 gneE9 e3 e2 gneE2 gneE4 gneE6"/>
    </vehicle>
    <vehicle id="278" depart="176.32">
        <route edges="gneE11 e14"/>
    </vehicle>