<?xml version="1.0" encoding="UTF-8"?>

<!-- generated on Tue Dec 22 01:53:19 2020 by Eclipse SUMO duarouter Version 1.6.0
<configuration xmlns:xsi="http://www.w3.org/2001/XMLSchema-instance" xsi:noNamespaceSchemaLocation="http://sumo.dlr.de/xsd/duarouterConfiguration.xsd">

    <input>
        <net-file value="configs/two_inter/two_inter.net.xml"/>
        <route-files value="configs/two_inter/trips.trips.xml"/>
    </input>

    <output>
        <output-file value="configs/two_inter/traffic.rou.xml"/>
        <alternatives-output value="configs/two_inter/traffic.rou.alt.xml"/>
    </output>

    <time>
        <begin value="0"/>
        <end value="1946"/>
    </time>

    <report>
        <no-warnings value="true"/>
        <ignore-errors value="true"/>
        <no-step-log value="true"/>
    </report>

</configuration>
-->

<routes xmlns:xsi="http://www.w3.org/2001/XMLSchema-instance" xsi:noNamespaceSchemaLocation="http://sumo.dlr.de/xsd/routes_file.xsd">
    <vehicle id="0" depart="0.00">
        <route edges="e9 gneE3 gneE5 gneE1 e8"/>
    </vehicle>
    <vehicle id="1" depart="2.58">
        <route edges="e9 gneE3 gneE5 gneE1 e8 gneE11"/>
    </vehicle>
    <vehicle id="2" depart="5.16">
        <route edges="e8 gneE11 e14 e2 e9 gneE3"/>
    </vehicle>
    <vehicle id="3" depart="7.74">
        <route edges="gneE2 gneE4 gneE6 e7 e5"/>
    </vehicle>
    <vehicle id="4" depart="10.32">
        <route edges="e10"/>
    </vehicle>
    <vehicle id="5" depart="12.90">
        <route edges="gneE3 gneE5 gneE1 e5 e6 gneE10 gneE8"/>
    </vehicle>
    <vehicle id="6" depart="15.49">
        <route edges="gneE8"/>
    </vehicle>
    <vehicle id="7" depart="18.07">
        <route edges="e7 e5 e6 gneE10 gneE8 e11"/>
    </vehicle>
    <vehicle id="8" depart="20.65">
        <route edges="gneE7 gneE9 e3 e2"/>
    </vehicle>
    <vehicle id="9" depart="23.23">
        <route edges="gneE4 gneE6 e7 e5 e6"/>
    </vehicle>
    <vehicle id="10" depart="25.81">
        <route edges="e6 gneE10 gneE8 e11 e2 e8"/>
    </vehicle>
    <vehicle id="11" depart="28.39">
        <route edges="gneE3 gneE5 gneE1 e5 e12 gneE12 e10 gneE2"/>
    </vehicle>
    <vehicle id="12" depart="30.97">
        <route edges="gneE12 e10 gneE2 gneE4 gneE6"/>
    </vehicle>
    <vehicle id="13" depart="33.55">
        <route edges="e10 e5 e13 gneE7"/>
    </vehicle>
    <vehicle id="14" depart="36.13">
        <route edges="e13 gneE7 gneE9 e3 e2 e9 gneE3 gneE5"/>
    </vehicle>
    <vehicle id="15" depart="38.71">
        <route edges="gneE3 gneE5 gneE1 e8 gneE11 e14 e2"/>
    </vehicle>
    <vehicle id="16" depart="41.29">
        <route edges="e3 e12 gneE12"/>
    </vehicle>
    <vehicle id="17" depart="43.88">
        <route edges="gneE9 e3 e12 gneE12 e10"/>
    </vehicle>
    <vehicle id="18" depart="46.46">
        <route edges="e2 e8 gneE11 e14 e6 gneE10 gneE8 e11"/>
    </vehicle>
    <vehicle id="19" depart="49.04">
        <route edges="e10 gneE2 gneE4 gneE6 e7 e8 gneE11"/>
    </vehicle>
    <vehicle id="20" depart="51.62">
        <route edges="gneE4 gneE6 e7 e5 e6"/>
    </vehicle>
    <vehicle id="21" depart="54.20">
        <route edges="e9 gneE3 gneE5 gneE1 e5 e12 gneE12 e10 gneE2"/>
    </vehicle>
    <vehicle id="22" depart="56.78">
        <route edges="gneE10 gneE8 e11 e12 gneE12 e10"/>
    </vehicle>
    <vehicle id="23" depart="59.36">
        <route edges="gneE7 gneE9 e3 e12 gneE12 e10 e5 e6"/>
    </vehicle>
    <vehicle id="24" depart="61.94">
        <route edges="e12 gneE12 e10 e5 e6"/>
    </vehicle>
    <vehicle id="25" depart="64.52">
        <route edges="e14 e2 e9"/>
    </vehicle>
    <vehicle id="26" depart="67.10">
        <route edges="e6 gneE10 gneE8 e11 e2 e9"/>
    </vehicle>
    <vehicle id="27" depart="69.68">
        <route edges="gneE9 e3 e12 gneE12 e10"/>
    </vehicle>
    <vehicle id="28" depart="72.27">
        <route edges="e2 gneE2"/>
    </vehicle>
    <vehicle id="29" depart="74.85">
        <route edges="e12 gneE12 e10 gneE2 gneE4 gneE6 e7 e8 gneE11 e14"/>
    </vehicle>
    <vehicle id="30" depart="77.43">
        <route edges="gneE2 gneE4 gneE6 e7 e5 e6 gneE10 gneE8 e11"/>
    </vehicle>
    <vehicle id="31" depart="80.01">
        <route edges="gneE7 gneE9 e3 e12 gneE12 e10 e5 e6"/>
    </vehicle>
    <vehicle id="32" depart="82.59">
        <route edges="e14 e13 gneE7 gneE9 e3 e12"/>
    </vehicle>
    <vehicle id="33" depart="85.17">
        <route edges="e9 gneE3 gneE5 gneE1 e8"/>
    </vehicle>
    <vehicle id="34" depart="87.75">
        <route edges="e13 gneE7 gneE9 e3 e2 gneE2 gneE4"/>
    </vehicle>
    <vehicle id="35" depart="90.33">
        <route edges="gneE4 gneE6 e7 e5 e13 gneE7"/>
    </vehicle>
    <vehicle id="36" depart="92.91">
        <route edges="e2 e8 gneE11 e14 e13 gneE7 gneE9"/>
    </vehicle>
    <vehicle id="37" depart="95.49">
        <route edges="e12 gneE12 e10 e5 e6 gneE10"/>
    </vehicle>
    <vehicle id="38" depart="98.07">
        <route edges="e3 e12 gneE12 e10 e5 e6"/>
    </vehicle>
    <vehicle id="39" depart="100.66">
        <route edges="gneE10 gneE8 e11 e12"/>
    </vehicle>
    <vehicle id="40" depart="103.24">
        <route edges="e5 e12 gneE12 e10"/>
    </vehicle>
    <vehicle id="41" depart="105.82">
        <route edges="e13 gneE7 gneE9 e3 e2 gneE2 gneE4"/>
    </vehicle>
    <vehicle id="42" depart="108.40">
        <route edges="e7 e5 e6 gneE10"/>
    </vehicle>
    <vehicle id="43" depart="110.98">
        <route edges="gneE11 e14 e2 e9 gneE3"/>
    </vehicle>
    <vehicle id="44" depart="113.56">
        <route edges="e7 gneE2 gneE4"/>
    </vehicle>
    <vehicle id="45" depart="116.14">
        <route edges="gneE5 gneE1 e5 e12 gneE12 e10 gneE2 gneE4"/>
    </vehicle>
    <vehicle id="46" depart="118.72">
        <route edges="gneE11 e14 e2 gneE2 gneE4 gneE6"/>
    </vehicle>
    <vehicle id="47" depart="121.30">
        <route edges="e2 e9 gneE3 gneE5 gneE1"/>
    </vehicle>
    <vehicle id="48" depart="123.88">
        <route edges="e3 e2 gneE2 gneE4 gneE6"/>
    </vehicle>
    <vehicle id="49" depart="126.46">
        <route edges="gneE5 gneE1 e8"/>
    </vehicle>
    <vehicle id="50" depart="129.05">
        <route edges="gneE3 gneE5 gneE1 e8 gneE11 e14 e2"/>
    </vehicle>
    <vehicle id="51" depart="131.63">
        <route edges="e7 e5 e12 gneE12 e10 e9 gneE3 gneE5"/>
    </vehicle>
    <vehicle id="52" depart="134.21">
        <route edges="e14 e2 e8 gneE11"/>
    </vehicle>
    <vehicle id="53" depart="136.79">
        <route edges="gneE8 e11 e2 gneE2 gneE4 gneE6"/>
    </vehicle>
    <vehicle id="54" depart="139.37">
        <route edges="e14 e13 gneE7 gneE9 e3 e12 gneE12"/>
    </vehicle>
    <vehicle id="55" depart="141.95">
        <route edges="gneE4 gneE6 e7 e5 e12 gneE12 e10 e9 gneE3"/>
    </vehicle>
    <vehicle id="56" depart="144.53">
        <route edges="gneE12 e10 e5 e13 gneE7 gneE9"/>
    </vehicle>
    <vehicle id="57" depart="147.11">
        <route edges="e3 e12 gneE12 e10 e5 e6 gneE10 gneE8 e11"/>
    </vehicle>
    <vehicle id="58" depart="149.69">
        <route edges="gneE1 e5 e12 gneE12 e10 gneE2"/>
    </vehicle>
    <vehicle id="59" depart="152.27">
        <route edges="e9 gneE3 gneE5 gneE1 e5 e12"/>
    </vehicle>
    <vehicle id="60" depart="154.85">
        <route edges="e6 gneE10 gneE8 e11 e2 gneE2 gneE4"/>
    </vehicle>
    <vehicle id="61" depart="157.44">
        <route edges="e7 e5 e12 gneE12 e10 e9 gneE3 gneE5"/>
    </vehicle>
    <vehicle id="62" depart="160.02">
        <route edges="e2"/>
    </vehicle>
    <vehicle id="63" depart="162.60">
        <route edges="gneE10 gneE8 e11 e12 gneE12 e10 e5 e13"/>
    </vehicle>
    <vehicle id="64" depart="165.18">
        <route edges="e13 gneE7 gneE9 e3 e2 e9 gneE3 gneE5 gneE1"/>
    </vehicle>
    <vehicle id="65" depart="167.76">
        <route edges="gneE8 e11 e12 gneE12 e10"/>
    </vehicle>
    <vehicle id="66" depart="170.34">
        <route edges="gneE6 e7 e5 e13 gneE7 gneE9 e3"/>
    </vehicle>
    <vehicle id="67" depart="172.92">
        <route edges="gneE3 gneE5 gneE1"/>
    </vehicle>
    <vehicle id="68" depart="175.50">
        <route edges="gneE8 e11 e2"/>
    </vehicle>
    <vehicle id="69" depart="178.08">
        <route edges="e13"/>
    </vehicle>
    <vehicle id="70" depart="180.66">
        <route edges="e10 gneE2 gneE4 gneE6 e7 e8 gneE11 e14"/>
    </vehicle>
    <vehicle id="71" depart="183.24">
        <route edges="e7 e8 gneE11"/>
    </vehicle>
    <vehicle id="72" depart="185.82">
        <route edges="gneE12 e10 e5 e13"/>
    </vehicle>
    <vehicle id="73" depart="188.41">
        <route edges="e7 e5 e6"/>
    </vehicle>
    <vehicle id="74" depart="190.99">
        <route edges="e10 e5 e6 gneE10 gneE8"/>
    </vehicle>
    <vehicle id="75" depart="193.57">
        <route edges="gneE10 gneE8 e11 e12 gneE12"/>
    </vehicle>
    <vehicle id="76" depart="196.15">
        <route edges="e8 gneE11 e14 e6 gneE10 gneE8 e11"/>
    </vehicle>
    <vehicle id="77" depart="198.73">
        <route edges="gneE2 gneE4 gneE6 e7 e8 gneE11"/>
    </vehicle>
    <vehicle id="78" depart="201.31">
        <route edges="gneE7 gneE9 e3 e2 gneE2 gneE4 gneE6"/>
    </vehicle>
    <vehicle id="79" depart="203.89">
        <route edges="gneE8 e11 e2 e8"/>
    </vehicle>
    <vehicle id="80" depart="206.47">
        <route edges="e8 gneE11 e14 e2 e9 gneE3 gneE5"/>
    </vehicle>
    <vehicle id="81" depart="209.05">
        <route edges="e10"/>
    </vehicle>
    <vehicle id="82" depart="211.63">
        <route edges="gneE12 e10"/>
    </vehicle>
    <vehicle id="83" depart="214.21">
        <route edges="e6 gneE10 gneE8 e11 e2"/>
    </vehicle>
    <vehicle id="84" depart="216.80">
        <route edges="gneE6 e7 e5 e6 gneE10"/>
    </vehicle>
    <vehicle id="85" depart="219.38">
        <route edges="e9 gneE3 gneE5"/>
    </vehicle>
    <vehicle id="86" depart="221.96">
        <route edges="gneE7 gneE9 e3 e2 gneE2 gneE4 gneE6 e7"/>
    </vehicle>
    <vehicle id="87" depart="224.54">
        <route edges="e6 gneE10 gneE8 e11 e2 gneE2 gneE4"/>
    </vehicle>
    <vehicle id="88" depart="227.12">
        <route edges="gneE10 gneE8 e11 e2 e9 gneE3 gneE5 gneE1"/>
    </vehicle>
    <vehicle id="89" depart="229.70">
        <route edges="e12 gneE12 e10 gneE2 gneE4 gneE6 e7 e8 gneE11 e14"/>
    </vehicle>
    <vehicle id="90" depart="232.28">
        <route edges="gneE10 gneE8 e11 e12 gneE12 e10 e5 e13 gneE7 gneE9"/>
    </vehicle>
    <vehicle id="91" depart="234.86">
        <route edges="e6 gneE10 gneE8 e11"/>
    </vehicle>
    <vehicle id="92" depart="237.44">
        <route edges="e10 e5 e6 gneE10 gneE8"/>
    </vehicle>
    <vehicle id="93" depart="240.02">
        <route edges="e12 gneE12 e10 e9 gneE3"/>
    </vehicle>
    <vehicle id="94" depart="242.60">
        <route edges="e6 gneE10"/>
    </vehicle>
    <vehicle id="95" depart="245.19">
        <route edges="e5 e13 gneE7"/>
    </vehicle>
    <vehicle id="96" depart="247.77">
        <route edges="e11 e2 e8"/>
    </vehicle>
    <vehicle id="97" depart="250.35">
        <route edges="gneE1 e5 e12 gneE12"/>
    </vehicle>
    <vehicle id="98" depart="252.93">
        <route edges="gneE2 gneE4 gneE6 e7 e5 e12 gneE12 e10 e9 gneE3 gneE5"/>
    </vehicle>
    <vehicle id="99" depart="255.51">
        <route edges="e3 e12 gneE12 e10"/>
    </vehicle>
    <vehicle id="100" depart="258.09">
        <route edges="gneE1 e9 gneE3"/>
    </vehicle>
    <vehicle id="101" depart="260.67">
        <route edges="gneE9 e3 e2 gneE2 gneE4 gneE6"/>
    </vehicle>
    <vehicle id="102" depart="263.25">
        <route edges="gneE11 e14 e13 gneE7 gneE9 e3 e12 gneE12"/>
    </vehicle>
    <vehicle id="103" depart="265.83">
        <route edges="gneE1 e5 e6"/>
    </vehicle>
    <vehicle id="104" depart="268.41">
        <route edges="e5 e13 gneE7 gneE9 e3 e2 e8"/>
    </vehicle>
    <vehicle id="105" depart="270.99">
        <route edges="gneE7 gneE9 e3 e12 gneE12 e10 e5 e6 gneE10"/>
    </vehicle>
    <vehicle id="106" depart="273.58">
        <route edges="gneE11 e14"/>
    </vehicle>
    <vehicle id="107" depart="276.16">
        <route edges="gneE11 e14 e2 gneE2"/>
    </vehicle>
    <vehicle id="108" depart="278.74">
        <route edges="e6 gneE10 gneE8 e11 e12 gneE12 e10 e5 e13 gneE7 gneE9 e3"/>
    </vehicle>
    <vehicle id="109" depart="281.32">
        <route edges="e13 gneE7 gneE9 e3 e2 e9 gneE3"/>
    </vehicle>
    <vehicle id="110" depart="283.90">
        <route edges="e14 e2 e8 gneE11"/>
    </vehicle>
    <vehicle id="111" depart="286.48">
        <route edges="e5 e12 gneE12 e10 gneE2 gneE4 gneE6"/>
    </vehicle>
    <vehicle id="112" depart="289.06">
        <route edges="e5 e12"/>
    </vehicle>
    <vehicle id="113" depart="291.64">
        <route edges="e2 e8 gneE11 e14 e6 gneE10"/>
    </vehicle>
    <vehicle id="114" depart="294.22">
        <route edges="e13 gneE7 gneE9"/>
    </vehicle>
    <vehicle id="115" depart="296.80">
        <route edges="gneE2 gneE4 gneE6 e7 e5 e12 gneE12 e10 e9 gneE3 gneE5 gneE1"/>
    </vehicle>
    <vehicle id="116" depart="299.38">
        <route edges="gneE8 e11 e2"/>
    </vehicle>
    <vehicle id="117" depart="301.97">
        <route edges="e8 gneE11 e14 e6 gneE10"/>
    </vehicle>
    <vehicle id="118" depart="304.55">
        <route edges="gneE8 e11 e2 e8 gneE11 e14"/>
    </vehicle>
    <vehicle id="119" depart="307.13">
        <route edges="e6 gneE10 gneE8 e11 e2 e9 gneE3 gneE5"/>
    </vehicle>
    <vehicle id="120" depart="309.71">
        <route edges="e9 gneE3 gneE5 gneE1 e5"/>
    </vehicle>
    <vehicle id="121" depart="312.29">
        <route edges="gneE12 e10 e5 e13 gneE7"/>
    </vehicle>
    <vehicle id="122" depart="314.87">
        <route edges="gneE10 gneE8 e11 e2 e8"/>
    </vehicle>
    <vehicle id="123" depart="317.45">
        <route edges="e7 e5 e12 gneE12 e10 e9"/>
    </vehicle>
    <vehicle id="124" depart="320.03">
        <route edges="e11 e2 e9 gneE3 gneE5 gneE1"/>
    </vehicle>
    <vehicle id="125" depart="322.61">
        <route edges="gneE4 gneE6 e7 e5 e6 gneE10 gneE8 e11"/>
    </vehicle>
    <vehicle id="126" depart="325.19">
        <route edges="gneE2 gneE4 gneE6 e7 e5 e13 gneE7 gneE9"/>
    </vehicle>
    <vehicle id="127" depart="327.77">
        <route edges="e13 gneE7 gneE9 e3 e2 e9"/>
    </vehicle>
    <vehicle id="128" depart="330.36">
        <route edges="gneE6 e7 e5 e6"/>
    </vehicle>
    <vehicle id="129" depart="332.94">
        <route edges="e14"/>
    </vehicle>
    <vehicle id="130" depart="335.52">
        <route edges="e12 gneE12 e10 gneE2 gneE4 gneE6 e7"/>
    </vehicle>
    <vehicle id="131" depart="338.10">
        <route edges="e12 gneE12 e10 e5 e6 gneE10 gneE8"/>
    </vehicle>
    <vehicle id="132" depart="340.68">
        <route edges="e14 e2 gneE2 gneE4 gneE6"/>
    </vehicle>
    <vehicle id="133" depart="343.26">
        <route edges="gneE6 e7 e5 e12 gneE12"/>
    </vehicle>
    <vehicle id="134" depart="345.84">
        <route edges="gneE5 gneE1 e5 e12 gneE12 e10 gneE2 gneE4 gneE6"/>
    </vehicle>
    <vehicle id="135" depart="348.42">
        <route edges="e8 gneE11 e14 e6 gneE10 gneE8 e11"/>
    </vehicle>
    <vehicle id="136" depart="351.00">
        <route edges="gneE9 e3 e2 e8"/>
    </vehicle>
    <vehicle id="137" depart="353.58">
        <route edges="e10 gneE2"/>
    </vehicle>
    <vehicle id="138" depart="356.16">
        <route edges="gneE4 gneE6 e7 e5 e6 gneE10 gneE8"/>
    </vehicle>
    <vehicle id="139" depart="358.75">
        <route edges="e9 gneE3 gneE5 gneE1"/>
    </vehicle>
    <vehicle id="140" depart="361.33">
        <route edges="gneE10 gneE8 e11 e2 e8"/>
    </vehicle>
    <vehicle id="141" depart="363.91">
        <route edges="gneE11 e14"/>
    </vehicle>
    <vehicle id="142" depart="366.49">
        <route edges="gneE8 e11 e2 e9 gneE3 gneE5 gneE1"/>
    </vehicle>
    <vehicle id="143" depart="369.07">
        <route edges="e2 e9 gneE3"/>
    </vehicle>
    <vehicle id="144" depart="371.65">
        <route edges="e6 gneE10 gneE8 e11 e2 gneE2 gneE4"/>
    </vehicle>
    <vehicle id="145" depart="374.23">
        <route edges="gneE8 e11 e12 gneE12 e10 e5 e13 gneE7"/>
    </vehicle>
    <vehicle id="146" depart="376.81">
        <route edges="e11 e6 gneE10 gneE8"/>
    </vehicle>
    <vehicle id="147" depart="379.39">
        <route edges="gneE3 gneE5 gneE1 e5 e13 gneE7 gneE9 e3"/>
    </vehicle>
    <vehicle id="148" depart="381.97">
        <route edges="e7 e8 gneE11"/>
    </vehicle>
    <vehicle id="149" depart="384.55">
        <route edges="e3 e2 e9 gneE3 gneE5"/>
    </vehicle>
    <vehicle id="150" depart="387.14">
        <route edges="e9 gneE3"/>
    </vehicle>
    <vehicle id="151" depart="389.72">
        <route edges="gneE10 gneE8 e11 e12 gneE12 e10 e5 e13 gneE7 gneE9"/>
    </vehicle>
    <vehicle id="152" depart="392.30">
        <route edges="e13 gneE7 gneE9 e3 e12 gneE12 e10 e5 e6 gneE10 gneE8"/>
    </vehicle>
    <vehicle id="153" depart="394.88">
        <route edges="e3"/>
    </vehicle>
    <vehicle id="154" depart="397.46">
        <route edges="gneE10 gneE8 e11 e2 gneE2 gneE4 gneE6"/>
    </vehicle>
    <vehicle id="155" depart="400.04">
        <route edges="e10 gneE2 gneE4"/>
    </vehicle>
    <vehicle id="156" depart="402.62">
        <route edges="gneE5 gneE1 e8"/>
    </vehicle>
    <vehicle id="157" depart="405.20">
        <route edges="gneE3 gneE5 gneE1 e5 e13 gneE7"/>
    </vehicle>
    <vehicle id="158" depart="407.78">
        <route edges="gneE5 gneE1 e5 e13"/>
    </vehicle>
    <vehicle id="159" depart="410.36">
        <route edges="gneE10 gneE8 e11 e2 e9 gneE3 gneE5"/>
    </vehicle>
    <vehicle id="160" depart="412.94">
        <route edges="e14 e6 gneE10 gneE8"/>
    </vehicle>
    <vehicle id="161" depart="415.53">
        <route edges="e2 gneE2 gneE4 gneE6 e7 e5 e12 gneE12"/>
    </vehicle>
    <vehicle id="162" depart="418.11">
        <route edges="gneE10 gneE8 e11 e2 e9 gneE3"/>
    </vehicle>
    <vehicle id="163" depart="420.69">
        <route edges="gneE10 gneE8 e11 e2 gneE2 gneE4 gneE6"/>
    </vehicle>
    <vehicle id="164" depart="423.27">
        <route edges="e12 gneE12 e10 gneE2 gneE4 gneE6 e7"/>
    </vehicle>
    <vehicle id="165" depart="425.85">
        <route edges="e8 gneE11 e14 e2 e9 gneE3 gneE5 gneE1"/>
    </vehicle>
    <vehicle id="166" depart="428.43">
        <route edges="e2 e8 gneE11 e14 e13"/>
    </vehicle>
    <vehicle id="167" depart="431.01">
        <route edges="gneE3 gneE5 gneE1 e5 e6 gneE10"/>
    </vehicle>
    <vehicle id="168" depart="433.59">
        <route edges="e10 gneE2 gneE4 gneE6 e7"/>
    </vehicle>
    <vehicle id="169" depart="436.17">
        <route edges="gneE4 gneE6 e7 e5 e6"/>
    </vehicle>
    <vehicle id="170" depart="438.75">
        <route edges="e11 e6"/>
    </vehicle>
    <vehicle id="171" depart="441.33">
        <route edges="gneE12 e10 gneE2 gneE4 gneE6 e7 e8 gneE11 e14"/>
    </vehicle>
    <vehicle id="172" depart="443.92">
        <route edges="e7 gneE2"/>
    </vehicle>
    <vehicle id="173" depart="446.50">
        <route edges="gneE7 gneE9 e3 e2 e9"/>
    </vehicle>
    <vehicle id="174" depart="449.08">
        <route edges="gneE5 gneE1 e5 e12 gneE12 e10 gneE2"/>
    </vehicle>
    <vehicle id="175" depart="451.66">
        <route edges="gneE4 gneE6 e7 e5"/>
    </vehicle>
    <vehicle id="176" depart="454.24">
        <route edges="e14 e2 e8"/>
    </vehicle>
    <vehicle id="177" depart="456.82">
        <route edges="e3 e12 gneE12 e10 e5 e6 gneE10"/>
    </vehicle>
    <vehicle id="178" depart="459.40">
        <route edges="e6 gneE10 gneE8 e11 e12"/>
    </vehicle>
    <vehicle id="179" depart="461.98">
        <route edges="gneE3"/>
    </vehicle>
    <vehicle id="180" depart="464.56">
        <route edges="gneE2 gneE4 gneE6 e7 e5 e13 gneE7 gneE9 e3"/>
    </vehicle>
    <vehicle id="181" depart="467.14">
        <route edges="gneE3 gneE5 gneE1 e8 gneE11 e14 e2"/>
    </vehicle>
    <vehicle id="182" depart="469.72">
        <route edges="gneE3 gneE5 gneE1 e8 gneE11 e14"/>
    </vehicle>
    <vehicle id="183" depart="472.31">
        <route edges="e11 e2 e9 gneE3 gneE5"/>
    </vehicle>
    <vehicle id="184" depart="474.89">
        <route edges="e6 gneE10 gneE8 e11 e2 gneE2 gneE4 gneE6 e7"/>
    </vehicle>
    <vehicle id="185" depart="477.47">
        <route edges="e13 gneE7 gneE9 e3 e12 gneE12 e10 e5 e6"/>
    </vehicle>
    <vehicle id="186" depart="480.05">
        <route edges="e8 gneE11 e14 e6 gneE10"/>
    </vehicle>
    <vehicle id="187" depart="482.63">
        <route edges="gneE3 gneE5 gneE1 e5 e6 gneE10 gneE8 e11"/>
    </vehicle>
    <vehicle id="188" depart="485.21">
        <route edges="e14 e2 e9"/>
    </vehicle>
    <vehicle id="189" depart="487.79">
        <route edges="e13 gneE7 gneE9 e3 e12 gneE12 e10"/>
    </vehicle>
    <vehicle id="190" depart="490.37">
        <route edges="e14 e2 gneE2 gneE4"/>
    </vehicle>
    <vehicle id="191" depart="492.95">
        <route edges="e6 gneE10 gneE8"/>
    </vehicle>
    <vehicle id="192" depart="495.53">
        <route edges="e8 gneE11 e14 e2 e9 gneE3 gneE5"/>
    </vehicle>
    <vehicle id="193" depart="498.11">
        <route edges="gneE8 e11 e2"/>
    </vehicle>
    <vehicle id="194" depart="500.69">
        <route edges="e14 e2 gneE2 gneE4 gneE6"/>
    </vehicle>
    <vehicle id="195" depart="503.28">
        <route edges="e10 e5"/>
    </vehicle>
    <vehicle id="196" depart="505.86">
        <route edges="e12 gneE12 e10 gneE2 gneE4 gneE6 e7"/>
    </vehicle>
    <vehicle id="197" depart="508.44">
        <route edges="e12 gneE12 e10 e5 e6"/>
    </vehicle>
    <vehicle id="198" depart="511.02">
        <route edges="gneE4 gneE6 e7 e8 gneE11"/>
    </vehicle>
    <vehicle id="199" depart="513.60">
        <route edges="gneE7 gneE9 e3"/>
    </vehicle>
    <vehicle id="200" depart="516.18">
        <route edges="gneE2 gneE4 gneE6 e7 e5 e6 gneE10 gneE8"/>
    </vehicle>
    <vehicle id="201" depart="518.76">
        <route edges="e6 gneE10 gneE8 e11 e12 gneE12 e10 e5 e13 gneE7 gneE9 e3"/>
    </vehicle>
    <vehicle id="202" depart="521.34">
        <route edges="gneE9 e3 e2 e8"/>
    </vehicle>
    <vehicle id="203" depart="523.92">
        <route edges="gneE5 gneE1 e5 e6 gneE10 gneE8 e11"/>
    </vehicle>
    <vehicle id="204" depart="526.50">
        <route edges="e6 gneE10 gneE8 e11 e2 gneE2 gneE4"/>
    </vehicle>
    <vehicle id="205" depart="529.08">
        <route edges="e5 e12 gneE12 e10 gneE2"/>
    </vehicle>
    <vehicle id="206" depart="531.67">
        <route edges="e12 gneE12 e10 e5 e13 gneE7 gneE9 e3"/>
    </vehicle>
    <vehicle id="207" depart="534.25">
        <route edges="e12 gneE12 e10"/>
    </vehicle>
    <vehicle id="208" depart="536.83">
        <route edges="gneE4 gneE6 e7 e5 e12 gneE12"/>
    </vehicle>
    <vehicle id="209" depart="539.41">
        <route edges="e9 gneE3"/>
    </vehicle>
    <vehicle id="210" depart="541.99">
        <route edges="gneE11 e14 e2 e9"/>
    </vehicle>
    <vehicle id="211" depart="544.57">
        <route edges="e14 e13"/>
    </vehicle>
    <vehicle id="212" depart="547.15">
        <route edges="gneE7 gneE9 e3 e12 gneE12 e10 e5 e6 gneE10"/>
    </vehicle>
    <vehicle id="213" depart="549.73">
        <route edges="e2 gneE2 gneE4 gneE6 e7"/>
    </vehicle>
    <vehicle id="214" depart="552.31">
        <route edges="gneE2 gneE4 gneE6 e7 e5 e12 gneE12 e10 e9 gneE3 gneE5 gneE1"/>
    </vehicle>
    <vehicle id="215" depart="554.89">
        <route edges="gneE2 gneE4"/>
    </vehicle>
    <vehicle id="216" depart="557.47">
        <route edges="e10 gneE2"/>
    </vehicle>
    <vehicle id="217" depart="560.06">
        <route edges="e9 gneE3 gneE5 gneE1 e8 gneE11 e14"/>
    </vehicle>
    <vehicle id="218" depart="562.64">
        <route edges="e9 gneE3 gneE5 gneE1 e5 e12 gneE12 e10"/>
    </vehicle>
    <vehicle id="219" depart="565.22">
        <route edges="gneE3 gneE5 gneE1 e5 e6"/>
    </vehicle>
    <vehicle id="220" depart="567.80">
        <route edges="e2 e8 gneE11 e14 e6 gneE10 gneE8"/>
    </vehicle>
    <vehicle id="221" depart="570.38">
        <route edges="e10 gneE2 gneE4 gneE6 e7"/>
    </vehicle>
    <vehicle id="222" depart="572.96">
        <route edges="e6 gneE10 gneE8 e11 e2 e9"/>
    </vehicle>
    <vehicle id="223" depart="575.54">
        <route edges="e10 gneE2 gneE4 gneE6 e7 e8 gneE11 e14"/>
    </vehicle>
    <vehicle id="224" depart="578.12">
        <route edges="e7 gneE2"/>
    </vehicle>
    <vehicle id="225" depart="580.70">
        <route edges="e13 gneE7 gneE9 e3 e12 gneE12 e10 e5"/>
    </vehicle>
    <vehicle id="226" depart="583.28">
        <route edges="e8 gneE11 e14 e13"/>
    </vehicle>
    <vehicle id="227" depart="585.86">
        <route edges="gneE7 gneE9 e3 e2 e9 gneE3 gneE5 gneE1"/>
    </vehicle>
    <vehicle id="228" depart="588.45">
        <route edges="e8 gneE11 e14 e13 gneE7 gneE9 e3"/>
    </vehicle>
    <vehicle id="229" depart="591.03">
        <route edges="e5"/>
    </vehicle>
    <vehicle id="230" depart="593.61">
        <route edges="gneE6 e7 e5 e6 gneE10 gneE8"/>
    </vehicle>
    <vehicle id="231" depart="596.19">
        <route edges="gneE10 gneE8 e11 e6"/>
    </vehicle>
    <vehicle id="232" depart="598.77">
        <route edges="e5 e13"/>
    </vehicle>
    <vehicle id="233" depart="601.35">
        <route edges="e2 e8 gneE11 e14 e6 gneE10 gneE8"/>
    </vehicle>
    <vehicle id="234" depart="603.93">
        <route edges="gneE7 gneE9 e3 e2 e9 gneE3"/>
    </vehicle>
    <vehicle id="235" depart="606.51">
        <route edges="gneE7 gneE9 e3 e2 e9 gneE3 gneE5"/>
    </vehicle>
    <vehicle id="236" depart="609.09">
        <route edges="gneE1 e8"/>
    </vehicle>
    <vehicle id="237" depart="611.67">
        <route edges="gneE5 gneE1 e5 e12 gneE12 e10"/>
    </vehicle>
    <vehicle id="238" depart="614.25">
        <route edges="e13 gneE7 gneE9 e3 e12 gneE12 e10"/>
    </vehicle>
    <vehicle id="239" depart="616.84">
        <route edges="gneE7 gneE9 e3 e2 e8"/>
    </vehicle>
    <vehicle id="240" depart="619.42">
        <route edges="gneE6 e7 e5 e13"/>
    </vehicle>
    <vehicle id="241" depart="622.00">
        <route edges="gneE3"/>
    </vehicle>
    <vehicle id="242" depart="624.58">
        <route edges="gneE1 e5 e13 gneE7 gneE9"/>
    </vehicle>
    <vehicle id="243" depart="627.16">
        <route edges="e13 gneE7 gneE9 e3 e12 gneE12 e10 e5 e6"/>
    </vehicle>
    <vehicle id="244" depart="629.74">
        <route edges="e12 gneE12 e10 gneE2"/>
    </vehicle>
    <vehicle id="245" depart="632.32">
        <route edges="gneE5 gneE1 e8 gneE11 e14"/>
    </vehicle>
    <vehicle id="246" depart="634.90">
        <route edges="gneE1 e9"/>
    </vehicle>
    <vehicle id="247" depart="637.48">
        <route edges="gneE10 gneE8 e11 e2 e8"/>
    </vehicle>
    <vehicle id="248" depart="640.06">
        <route edges="gneE10 gneE8 e11 e12 gneE12 e10 e5 e13 gneE7 gneE9 e3"/>
    </vehicle>
    <vehicle id="249" depart="642.64">
        <route edges="e12 gneE12 e10 e5 e6 gneE10 gneE8 e11"/>
    </vehicle>
    <vehicle id="250" depart="645.23">
        <route edges="gneE9 e3 e12 gneE12 e10 e5 e6 gneE10 gneE8"/>
    </vehicle>
    <vehicle id="251" depart="647.81">
        <route edges="e11 e2 e9 gneE3 gneE5 gneE1"/>
    </vehicle>
    <vehicle id="252" depart="650.39">
        <route edges="gneE4 gneE6 e7 e5 e6"/>
    </vehicle>
    <vehicle id="253" depart="652.97">
        <route edges="e11 e2 e8 gneE11 e14"/>
    </vehicle>
    <vehicle id="254" depart="655.55">
        <route edges="e3 e2 gneE2 gneE4 gneE6"/>
    </vehicle>
    <vehicle id="255" depart="658.13">
        <route edges="e9 gneE3 gneE5"/>
    </vehicle>
    <vehicle id="256" depart="660.71">
        <route edges="e7 e8 gneE11 e14 e2"/>
    </vehicle>
    <vehicle id="257" depart="663.29">
        <route edges="gneE10 gneE8 e11 e12 gneE12 e10"/>
    </vehicle>
    <vehicle id="258" depart="665.87">
        <route edges="e3 e12"/>
    </vehicle>
    <vehicle id="259" depart="668.45">
        <route edges="gneE10"/>
    </vehicle>
    <vehicle id="260" depart="671.03">
        <route edges="e7 e5 e13 gneE7 gneE9"/>
    </vehicle>
    <vehicle id="261" depart="673.62">
        <route edges="gneE10 gneE8 e11 e2 e9 gneE3"/>
    </vehicle>
    <vehicle id="262" depart="676.20">
        <route edges="gneE5 gneE1 e5"/>
    </vehicle>
    <vehicle id="263" depart="678.78">
        <route edges="e11 e12 gneE12 e10 e5 e13 gneE7 gneE9 e3"/>
    </vehicle>
    <vehicle id="264" depart="681.36">
        <route edges="e3 e12 gneE12 e10 e5 e6 gneE10 gneE8 e11"/>
    </vehicle>
    <vehicle id="265" depart="683.94">
        <route edges="e6 gneE10 gneE8 e11 e12 gneE12 e10 e5 e13 gneE7"/>
    </vehicle>
    <vehicle id="266" depart="686.52">
        <route edges="e7 gneE2 gneE4"/>
    </vehicle>
    <vehicle id="267" depart="689.10">
        <route edges="gneE10 gneE8 e11 e2 gneE2 gneE4 gneE6"/>
    </vehicle>
    <vehicle id="268" depart="691.68">
        <route edges="gneE10 gneE8 e11 e2 e9"/>
    </vehicle>
    <vehicle id="269" depart="694.26">
        <route edges="gneE8 e11 e2 gneE2 gneE4"/>
    </vehicle>
    <vehicle id="270" depart="696.84">
        <route edges="e11 e2 e9 gneE3"/>
    </vehicle>
    <vehicle id="271" depart="699.42">
        <route edges="e8 gneE11 e14 e6 gneE10"/>
    </vehicle>
    <vehicle id="272" depart="702.01">
        <route edges="gneE6 e7 e8 gneE11 e14"/>
    </vehicle>
    <vehicle id="273" depart="704.59">
        <route edges="e13 gneE7 gneE9 e3 e12"/>
    </vehicle>
    <vehicle id="274" depart="707.17">
        <route edges="e14 e13 gneE7 gneE9 e3 e12"/>
    </vehicle>
    <vehicle id="275" depart="709.75">
        <route edges="e5 e12 gneE12 e10 gneE2 gneE4 gneE6"/>
    </vehicle>
    <vehicle id="276" depart="712.33">