<?xml version="1.0" encoding="UTF-8"?>

<!-- generated on Fri Nov 20 00:17:51 2020 by Eclipse SUMO duarouter Version 1.6.0
<configuration xmlns:xsi="http://www.w3.org/2001/XMLSchema-instance" xsi:noNamespaceSchemaLocation="http://sumo.dlr.de/xsd/duarouterConfiguration.xsd">

    <input>
        <net-file value="configs/two_inter/two_inter.net.xml"/>
        <route-files value="configs/two_inter/trips.trips.xml"/>
    </input>

    <output>
        <output-file value="configs/two_inter/traffic.rou.xml"/>
        <alternatives-output value="configs/two_inter/traffic.rou.alt.xml"/>
    </output>

    <time>
        <begin value="0"/>
        <end value="2613"/>
    </time>

    <report>
        <no-warnings value="true"/>
        <ignore-errors value="true"/>
        <no-step-log value="true"/>
    </report>

</configuration>
-->

<routes xmlns:xsi="http://www.w3.org/2001/XMLSchema-instance" xsi:noNamespaceSchemaLocation="http://sumo.dlr.de/xsd/routes_file.xsd">
    <vehicle id="0" depart="0.00">
        <route edges="gneE2 gneE4 gneE6 e7 e5 e13 gneE7 gneE9"/>
    </vehicle>
    <vehicle id="1" depart="5.83">
        <route edges="gneE12 e10 e5 e6"/>
    </vehicle>
    <vehicle id="2" depart="11.67">
        <route edges="gneE11 e14 e13 gneE7 gneE9 e3 e12 gneE12 e10"/>
    </vehicle>
    <vehicle id="3" depart="17.50">
        <route edges="gneE9 e3 e2 e8 gneE11"/>
    </vehicle>
    <vehicle id="4" depart="23.33">
        <route edges="gneE1 e5 e6"/>
    </vehicle>
    <vehicle id="5" depart="29.16">
        <route edges="e9 gneE3 gneE5 gneE1 e5 e6"/>
    </vehicle>
    <vehicle id="6" depart="35.00">
        <route edges="e2 e8 gneE11 e14 e6"/>
    </vehicle>
    <vehicle id="7" depart="40.83">
        <route edges="gneE3 gneE5 gneE1 e5 e6 gneE10 gneE8"/>
    </vehicle>
    <vehicle id="8" depart="46.66">
        <route edges="gneE1 e5 e12"/>
    </vehicle>
    <vehicle id="9" depart="52.49">
        <route edges="e11 e2 e8 gneE11 e14"/>
    </vehicle>
    <vehicle id="10" depart="58.33">
        <route edges="e12 gneE12 e10 e5 e6"/>
    </vehicle>
    <vehicle id="11" depart="64.16">
        <route edges="gneE3 gneE5 gneE1 e5 e12"/>
    </vehicle>
    <vehicle id="12" depart="69.99">
        <route edges="e8 gneE11 e14 e2 gneE2 gneE4"/>
    </vehicle>
    <vehicle id="13" depart="75.82">
        <route edges="e2 e8 gneE11 e14 e6 gneE10 gneE8 e11"/>
    </vehicle>
    <vehicle id="14" depart="81.66">
        <route edges="gneE1 e5 e6 gneE10 gneE8"/>
    </vehicle>
    <vehicle id="15" depart="87.49">
        <route edges="gneE5 gneE1 e5 e12 gneE12 e10 gneE2 gneE4 gneE6"/>
    </vehicle>
    <vehicle id="16" depart="93.32">
        <route edges="e6 gneE10 gneE8 e11 e12 gneE12 e10 e5 e13 gneE7 gneE9 e3"/>
    </vehicle>
    <vehicle id="17" depart="99.15">
        <route edges="gneE7 gneE9 e3 e12"/>
    </vehicle>
    <vehicle id="18" depart="104.99">
        <route edges="gneE10 gneE8 e11 e12 gneE12 e10 e5 e13 gneE7 gneE9 e3"/>
    </vehicle>
    <vehicle id="19" depart="110.82">
        <route edges="e11 e2 gneE2 gneE4 gneE6"/>
    </vehicle>
    <vehicle id="20" depart="116.65">
        <route edges="e10 e9 gneE3"/>
    </vehicle>
    <vehicle id="21" depart="122.48">
        <route edges="gneE3 gneE5 gneE1 e5 e12 gneE12 e10"/>
    </vehicle>
    <vehicle id="22" depart="128.32">
        <route edges="e14 e2"/>
    </vehicle>
    <vehicle id="23" depart="134.15">
        <route edges="gneE5 gneE1 e5 e12 gneE12"/>
    </vehicle>
    <vehicle id="24" depart="139.98">
        <route edges="gneE10 gneE8 e11 e12 gneE12 e10 e5 e13 gneE7 gneE9"/>
    </vehicle>
    <vehicle id="25" depart="145.81">
        <route edges="e3 e2 e8 gneE11 e14"/>
    </vehicle>
    <vehicle id="26" depart="151.65">
        <route edges="e2 e9"/>
    </vehicle>
    <vehicle id="27" depart="157.48">
        <route edges="gneE6 e7 e5 e12 gneE12 e10 e9"/>
    </vehicle>
    <vehicle id="28" depart="163.31">
        <route edges="e10 e9 gneE3 gneE5"/>
    </vehicle>
    <vehicle id="29" depart="169.15">
        <route edges="gneE1 e5 e12 gneE12 e10 gneE2"/>
    </vehicle>
    <vehicle id="30" depart="174.98">
        <route edges="e11 e2 gneE2 gneE4"/>
    </vehicle>
    <vehicle id="31" depart="180.81">
        <route edges="gneE7 gneE9 e3 e2 gneE2 gneE4 gneE6 e7"/>
    </vehicle>
    <vehicle id="32" depart="186.64">
        <route edges="e8 gneE11 e14 e2 e9"/>
    </vehicle>
    <vehicle id="33" depart="192.48">
        <route edges="gneE11 e14 e2"/>
    </vehicle>
    <vehicle id="34" depart="198.31">
        <route edges="gneE9 e3 e2"/>
    </vehicle>
    <vehicle id="35" depart="204.14">
        <route edges="gneE3 gneE5 gneE1 e5 e12 gneE12"/>
    </vehicle>
    <vehicle id="36" depart="209.97">
        <route edges="e13 gneE7 gneE9 e3 e2 gneE2"/>
    </vehicle>
    <vehicle id="37" depart="215.81">
        <route edges="e5 e12 gneE12 e10 e9 gneE3 gneE5 gneE1"/>
    </vehicle>
    <vehicle id="38" depart="221.64">
        <route edges="e6 gneE10 gneE8 e11 e12 gneE12"/>
    </vehicle>
    <vehicle id="39" depart="227.47">
        <route edges="e13 gneE7 gneE9 e3 e12 gneE12"/>
    </vehicle>
    <vehicle id="40" depart="233.30">
        <route edges="gneE5 gneE1 e5 e6 gneE10 gneE8 e11"/>
    </vehicle>
    <vehicle id="41" depart="239.14">
        <route edges="gneE10 gneE8 e11 e2 e9"/>
    </vehicle>
    <vehicle id="42" depart="244.97">
        <route edges="e13 gneE7 gneE9 e3 e2 e9 gneE3 gneE5"/>
    </vehicle>
    <vehicle id="43" depart="250.80">
        <route edges="e14 e2"/>
    </vehicle>
    <vehicle id="44" depart="256.63">
        <route edges="e2 gneE2 gneE4 gneE6 e7"/>
    </vehicle>
    <vehicle id="45" depart="262.47">
        <route edges="e8 gneE11 e14 e13 gneE7 gneE9 e3 e12 gneE12"/>
    </vehicle>
    <vehicle id="46" depart="268.30">
        <route edges="e6"/>
    </vehicle>
    <vehicle id="47" depart="274.13">
        <route edges="gneE7 gneE9 e3 e2 gneE2 gneE4 gneE6"/>
    </vehicle>
    <vehicle id="48" depart="279.96">
        <route edges="gneE8 e11 e12 gneE12 e10"/>
    </vehicle>
    <vehicle id="49" depart="285.80">
        <route edges="gneE1 e5 e6 gneE10 gneE8 e11"/>
    </vehicle>
    <vehicle id="50" depart="291.63">
        <route edges="e3 e2 e9 gneE3 gneE5 gneE1"/>
    </vehicle>
    <vehicle id="51" depart="297.46">
        <route edges="e3 e12 gneE12 e10 e5 e6"/>
    </vehicle>
    <vehicle id="52" depart="303.29">
        <route edges="gneE9 e3 e12"/>
    </vehicle>
    <vehicle id="53" depart="309.13">
        <route edges="e14 e13 gneE7 gneE9"/>
    </vehicle>
    <vehicle id="54" depart="314.96">
        <route edges="e3 e12 gneE12 e10 e5 e6 gneE10 gneE8 e11"/>
    </vehicle>
    <vehicle id="55" depart="320.79">
        <route edges="gneE11 e14 e6"/>
    </vehicle>
    <vehicle id="56" depart="326.62">
        <route edges="e10 e9 gneE3 gneE5 gneE1"/>
    </vehicle>
    <vehicle id="57" depart="332.46">
        <route edges="e13 gneE7 gneE9 e3 e12 gneE12 e10 e5 e6 gneE10 gneE8"/>
    </vehicle>
    <vehicle id="58" depart="338.29">
        <route edges="gneE5 gneE1 e5 e12 gneE12 e10 gneE2 gneE4 gneE6 e7"/>
    </vehicle>
    <vehicle id="59" depart="344.12">
        <route edges="gneE9 e3 e13"/>
    </vehicle>
    <vehicle id="60" depart="349.96">
        <route edges="gneE9 e3 e2 e9"/>
    </vehicle>
    <vehicle id="61" depart="355.79">
        <route edges="gneE4"/>
    </vehicle>
    <vehicle id="62" depart="361.62">
        <route edges="gneE11 e14 e13 gneE7 gneE9 e3"/>
    </vehicle>
    <vehicle id="63" depart="367.45">
        <route edges="e7 e5"/>
    </vehicle>
    <vehicle id="64" depart="373.29">
        <route edges="gneE11 e14 e13 gneE7 gneE9 e3"/>
    </vehicle>
    <vehicle id="65" depart="379.12">
        <route edges="gneE7 gneE9 e3 e2 gneE2 gneE4"/>
    </vehicle>
    <vehicle id="66" depart="384.95">
        <route edges="e6 gneE10 gneE8"/>
    </vehicle>
    <vehicle id="67" depart="390.78">
        <route edges="e10 gneE2"/>
    </vehicle>
    <vehicle id="68" depart="396.62">
        <route edges="e3 e2 e9 gneE3 gneE5 gneE1"/>
    </vehicle>
    <vehicle id="69" depart="402.45">
        <route edges="e5 e12 gneE12 e10 e9 gneE3"/>
    </vehicle>
    <vehicle id="70" depart="408.28">
        <route edges="e11 e6 gneE10"/>
    </vehicle>
    <vehicle id="71" depart="414.11">
        <route edges="e5 e12 gneE12 e10 e9"/>
    </vehicle>
    <vehicle id="72" depart="419.95">
        <route edges="gneE1 e5 e12 gneE12"/>
    </vehicle>
    <vehicle id="73" depart="425.78">
        <route edges="e9 gneE3 gneE5 gneE1 e8 gneE11 e14 e2"/>
    </vehicle>
    <vehicle id="74" depart="431.61">
        <route edges="e5 e6 gneE10"/>
    </vehicle>
    <vehicle id="75" depart="437.44">
        <route edges="e3 e2 e8 gneE11"/>
    </vehicle>
    <vehicle id="76" depart="443.28">
        <route edges="e7 e5 e6 gneE10 gneE8"/>
    </vehicle>
    <vehicle id="77" depart="449.11">
        <route edges="e9 gneE3 gneE5 gneE1 e5 e12 gneE12 e10"/>
    </vehicle>
    <vehicle id="78" depart="454.94">
        <route edges="gneE2 gneE4 gneE6"/>
    </vehicle>
    <vehicle id="79" depart="460.77">
        <route edges="e10 gneE2 gneE4 gneE6 e7 e8 gneE11"/>
    </vehicle>
    <vehicle id="80" depart="466.61">
        <route edges="gneE4 gneE6 e7 e8 gneE11"/>
    </vehicle>
    <vehicle id="81" depart="472.44">
        <route edges="e10 gneE2 gneE4"/>
    </vehicle>
    <vehicle id="82" depart="478.27">
        <route edges="gneE12 e10 e5 e6"/>
    </vehicle>
    <vehicle id="83" depart="484.10">
        <route edges="e11 e6 gneE10"/>
    </vehicle>
    <vehicle id="84" depart="489.94">
        <route edges="e13 gneE7 gneE9 e3 e2 e9 gneE3 gneE5 gneE1"/>
    </vehicle>
    <vehicle id="85" depart="495.77">
        <route edges="e8 gneE11 e14 e2 gneE2 gneE4"/>
    </vehicle>
    <vehicle id="86" depart="501.60">
        <route edges="e14 e6 gneE10 gneE8 e11"/>
    </vehicle>
    <vehicle id="87" depart="507.44">
        <route edges="e14 e2 e9 gneE3 gneE5"/>
    </vehicle>
    <vehicle id="88" depart="513.27">
        <route edges="gneE6 e7 e5 e6 gneE10"/>
    </vehicle>
    <vehicle id="89" depart="519.10">
        <route edges="gneE11 e14 e2 e8"/>
    </vehicle>
    <vehicle id="90" depart="524.93">
        <route edges="gneE9"/>
    </vehicle>
    <vehicle id="91" depart="530.77">
        <route edges="e2 gneE2 gneE4 gneE6"/>
    </vehicle>
    <vehicle id="92" depart="536.60">
        <route edges="gneE10 gneE8"/>
    </vehicle>
    <vehicle id="93" depart="542.43">
        <route edges="e3 e2"/>
    </vehicle>
    <vehicle id="94" depart="548.26">
        <route edges="e12 gneE12 e10 gneE2 gneE4 gneE6 e7 e8"/>
    </vehicle>
    <vehicle id="95" depart="554.10">
        <route edges="e5 e6 gneE10 gneE8 e11"/>
    </vehicle>
    <vehicle id="96" depart="559.93">
        <route edges="e11 e2 e8"/>
    </vehicle>
    <vehicle id="97" depart="565.76">
        <route edges="e2 gneE2 gneE4"/>
    </vehicle>
    <vehicle id="98" depart="571.59">
        <route edges="gneE5 gneE1 e5 e12 gneE12 e10"/>
    </vehicle>
    <vehicle id="99" depart="577.43">
        <route edges="e10 e5 e6"/>
    </vehicle>
    <vehicle id="100" depart="583.26">
        <route edges="e13 gneE7 gneE9 e3 e2 e9"/>
    </vehicle>
    <vehicle id="101" depart="589.09">
        <route edges="gneE5 gneE1 e8 gneE11"/>
    </vehicle>
    <vehicle id="102" depart="594.92">
        <route edges="e7 gneE2 gneE4"/>
    </vehicle>
    <vehicle id="103" depart="600.76">
        <route edges="e14 e2 gneE2"/>
    </vehicle>
    <vehicle id="104" depart="606.59">
        <route edges="gneE7 gneE9 e3 e12 gneE12 e10 e5 e6"/>
    </vehicle>
    <vehicle id="105" depart="612.42">
        <route edges="gneE10 gneE8 e11 e12 gneE12 e10 e5 e13 gneE7 gneE9 e3"/>
    </vehicle>
    <vehicle id="106" depart="618.25">
        <route edges="gneE4 gneE6 e7 e8"/>
    </vehicle>
    <vehicle id="107" depart="624.09">
        <route edges="e10 e5 e12"/>
    </vehicle>
    <vehicle id="108" depart="629.92">
        <route edges="gneE8 e11 e2"/>
    </vehicle>
    <vehicle id="109" depart="635.75">
        <route edges="e6 gneE10 gneE8 e11 e12 gneE12 e10 e5"/>
    </vehicle>
    <vehicle id="110" depart="641.58">
        <route edges="gneE5 gneE1 e8 gneE11"/>
    </vehicle>
    <vehicle id="111" depart="647.42">
        <route edges="e3 e2 gneE2 gneE4"/>
    </vehicle>
    <vehicle id="112" depart="653.25">
        <route edges="gneE4 gneE6 e7 e5 e12 gneE12 e10"/>
    </vehicle>
    <vehicle id="113" depart="659.08">
        <route edges="gneE10 gneE8 e11 e12 gneE12 e10 e5 e13"/>
    </vehicle>
    <vehicle id="114" depart="664.92">
        <route edges="gneE3 gneE5 gneE1 e5 e13"/>
    </vehicle>
    <vehicle id="115" depart="670.75">
        <route edges="gneE8 e11 e6 gneE10"/>
    </vehicle>
    <vehicle id="116" depart="676.58">
        <route edges="e10 e5 e12 gneE12"/>
    </vehicle>
    <vehicle id="117" depart="682.41">
        <route edges="e6 gneE10 gneE8 e11 e2 e8"/>
    </vehicle>
    <vehicle id="118" depart="688.25">
        <route edges="gneE2 gneE4 gneE6 e7 e5 e6 gneE10"/>
    </vehicle>
    <vehicle id="119" depart="694.08">
        <route edges="gneE12 e10 gneE2 gneE4"/>
    </vehicle>
    <vehicle id="120" depart="699.91">
        <route edges="e14 e6 gneE10 gneE8"/>
    </vehicle>
    <vehicle id="121" depart="705.74">
        <route edges="e5 e13 gneE7 gneE9 e3 e2"/>
    </vehicle>
    <vehicle id="122" depart="711.58">
        <route edges="gneE3 gneE5 gneE1 e5 e12 gneE12 e10 gneE2 gneE4"/>
    </vehicle>
    <vehicle id="123" depart="717.41">
        <route edges="gneE11 e14 e2 gneE2 gneE4 gneE6"/>
    </vehicle>
    <vehicle id="124" depart="723.24">
        <route edges="gneE1 e5 e12 gneE12 e10 gneE2 gneE4 gneE6"/>
    </vehicle>
    <vehicle id="125" depart="729.07">
        <route edges="gneE11 e14 e2 e9 gneE3 gneE5"/>
    </vehicle>
    <vehicle id="126" depart="734.91">
        <route edges="gneE6 e7 e5 e6 gneE10 gneE8"/>
    </vehicle>
    <vehicle id="127" depart="740.74">
        <route edges="gneE5 gneE1 e5 e6 gneE10"/>
    </vehicle>
    <vehicle id="128" depart="746.57">
        <route edges="gneE9 e3 e2 gneE2 gneE4"/>
    </vehicle>
    <vehicle id="129" depart="752.40">
        <route edges="e10 e5 e6 gneE10 gneE8"/>
    </vehicle>
    <vehicle id="130" depart="758.24">
        <route edges="e2 gneE2 gneE4 gneE6 e7 e5 e12 gneE12 e10"/>
    </vehicle>
    <vehicle id="131" depart="764.07">
        <route edges="gneE3 gneE5 gneE1 e5 e12 gneE12 e10 gneE2"/>
    </vehicle>
    <vehicle id="132" depart="769.90">
        <route edges="e14 e13 gneE7 gneE9 e3"/>
    </vehicle>
    <vehicle id="133" depart="775.73">
        <route edges="e5 e12 gneE12 e10"/>
    </vehicle>
    <vehicle id="134" depart="781.57">
        <route edges="e10 gneE2 gneE4 gneE6 e7"/>
    </vehicle>
    <vehicle id="135" depart="787.40">
        <route edges="gneE11 e14"/>
    </vehicle>
    <vehicle id="136" depart="793.23">
        <route edges="e6 gneE10 gneE8 e11 e12"/>
    </vehicle>
    <vehicle id="137" depart="799.06">
        <route edges="gneE2 gneE4 gneE6 e7 e8 gneE11"/>
    </vehicle>
    <vehicle id="138" depart="804.90">
        <route edges="gneE2 gneE4 gneE6 e7 e8"/>
    </vehicle>
    <vehicle id="139" depart="810.73">
        <route edges="e10 e9"/>
    </vehicle>
    <vehicle id="140" depart="816.56">
        <route edges="gneE7 gneE9 e3 e2 gneE2 gneE4 gneE6"/>
    </vehicle>
    <vehicle id="141" depart="822.40">
        <route edges="e8 gneE11 e14 e6 gneE10 gneE8 e11"/>
    </vehicle>
    <vehicle id="142" depart="828.23">
        <route edges="gneE2 gneE4 gneE6 e7 e5 e13"/>
    </vehicle>
    <vehicle id="143" depart="834.06">
        <route edges="gneE9 e3 e12 gneE12 e10 e5 e6 gneE10"/>
    </vehicle>
    <vehicle id="144" depart="839.89">
        <route edges="gneE8 e11 e2 e9 gneE3"/>
    </vehicle>
    <vehicle id="145" depart="845.73">
        <route edges="e13 gneE7 gneE9 e3 e2 e9 gneE3 gneE5"/>
    </vehicle>
    <vehicle id="146" depart="851.56">
        <route edges="e6 gneE10 gneE8 e11 e2 e9 gneE3 gneE5 gneE1"/>
    </vehicle>
    <vehicle id="147" depart="857.39">
        <route edges="gneE7 gneE9"/>
    </vehicle>
    <vehicle id="148" depart="863.22">
        <route edges="e2 e9 gneE3 gneE5"/>
    </vehicle>
    <vehicle id="149" depart="869.06">
        <route edges="e10 gneE2 gneE4 gneE6 e7 e8 gneE11"/>
    </vehicle>
    <vehicle id="150" depart="874.89">
        <route edges="gneE5 gneE1 e9"/>
    </vehicle>
    <vehicle id="151" depart="880.72">
        <route edges="e12 gneE12"/>
    </vehicle>
    <vehicle id="152" depart="886.55">
        <route edges="gneE11 e14 e13 gneE7"/>
    </vehicle>
    <vehicle id="153" depart="892.39">
        <route edges="e2 gneE2 gneE4 gneE6 e7 e5"/>
    </vehicle>
    <vehicle id="154" depart="898.22">
        <route edges="e3 e2 e9 gneE3"/>
    </vehicle>
    <vehicle id="155" depart="904.05">
        <route edges="e6 gneE10 gneE8 e11"/>
    </vehicle>
    <vehicle id="156" depart="909.88">
        <route edges="gneE1 e9 gneE3"/>
    </vehicle>
    <vehicle id="157" depart="915.72">
        <route edges="e3 e12 gneE12 e10 e5"/>
    </vehicle>
    <vehicle id="158" depart="921.55">
        <route edges="gneE11 e14 e2 e8"/>
    </vehicle>
    <vehicle id="159" depart="927.38">
        <route edges="gneE9 e3 e2 e8"/>
    </vehicle>
    <vehicle id="160" depart="933.21">
        <route edges="gneE7 gneE9 e3 e12 gneE12 e10 e5 e6"/>
    </vehicle>
    <vehicle id="161" depart="939.05">
        <route edges="gneE8 e11 e2 gneE2 gneE4 gneE6 e7"/>
    </vehicle>
    <vehicle id="162" depart="944.88">
        <route edges="e12 gneE12 e10 e9 gneE3 gneE5 gneE1"/>
    </vehicle>
    <vehicle id="163" depart="950.71">
        <route edges="e13 gneE7 gneE9 e3 e2 e9 gneE3 gneE5 gneE1"/>
    </vehicle>
    <vehicle id="164" depart="956.54">
        <route edges="gneE7"/>
    </vehicle>
    <vehicle id="165" depart="962.38">
        <route edges="gneE11 e14 e13 gneE7 gneE9 e3 e12 gneE12"/>
    </vehicle>
    <vehicle id="166" depart="968.21">
        <route edges="gneE8 e11 e2 e8 gneE11 e14"/>
    </vehicle>
    <vehicle id="167" depart="974.04">
        <route edges="e10 e5 e6 gneE10"/>
    </vehicle>
    <vehicle id="168" depart="979.88">
        <route edges="gneE10 gneE8 e11 e12"/>
    </vehicle>
    <vehicle id="169" depart="985.71">
        <route edges="gneE9 e3 e13"/>
    </vehicle>
    <vehicle id="170" depart="991.54">
        <route edges="e12 gneE12 e10 e9 gneE3 gneE5"/>
    </vehicle>
    <vehicle id="171" depart="997.37">
        <route edges="e6 gneE10 gneE8 e11 e2 e9 gneE3 gneE5"/>
    </vehicle>
    <vehicle id="172" depart="1003.21">
        <route edges="gneE2 gneE4"/>
    </vehicle>
    <vehicle id="173" depart="1009.04">
        <route edges="e14 e2 e9 gneE3 gneE5 gneE1"/>
    </vehicle>
    <vehicle id="174" depart="1014.87">
        <route edges="e5 e13 gneE7 gneE9"/>
    </vehicle>
    <vehicle id="175" depart="1020.70">
        <route edges="e13 gneE7 gneE9 e3 e12 gneE12 e10 e5 e6 gneE10"/>
    </vehicle>
    <vehicle id="176" depart="1026.54">
        <route edges="gneE9 e3 e2 gneE2 gneE4 gneE6"/>
    </vehicle>
    <vehicle id="177" depart="1032.37">
        <route edges="gneE9 e3 e2 gneE2"/>
    </vehicle>
    <vehicle id="178" depart="1038.20">
        <route edges="gneE8 e11 e2 e9 gneE3 gneE5"/>
    </vehicle>
    <vehicle id="179" depart="1044.03">
        <route edges="e3 e13 gneE7"/>
    </vehicle>
    <vehicle id="180" depart="1049.87">
        <route edges="gneE9 e3 e12"/>
    </vehicle>
    <vehicle id="181" depart="1055.70">
        <route edges="gneE3 gneE5 gneE1 e5 e13"/>
    </vehicle>
    <vehicle id="182" depart="1061.53">
        <route edges="gneE9 e3 e2 e9 gneE3"/>
    </vehicle>
    <vehicle id="183" depart="1067.36">
        <route edges="gneE2"/>
    </vehicle>
    <vehicle id="184" depart="1073.20">
        <route edges="e5 e12 gneE12 e10 e9 gneE3"/>
    </vehicle>
    <vehicle id="185" depart="1079.03">
        <route edges="gneE7 gneE9 e3 e12 gneE12 e10 e5 e6 gneE10"/>
    </vehicle>
    <vehicle id="186" depart="1084.86">
        <route edges="e12 gneE12 e10 e9 gneE3 gneE5"/>
    </vehicle>
    <vehicle id="187" depart="1090.69">
        <route edges="e12 gneE12 e10 e9"/>
    </vehicle>
    <vehicle id="188" depart="1096.53">
        <route edges="gneE10 gneE8 e11 e2 gneE2"/>
    </vehicle>
    <vehicle id="189" depart="1102.36">
        <route edges="e8 gneE11 e14 e13"/>
    </vehicle>
    <vehicle id="190" depart="1108.19">
        <route edges="gneE9 e3 e2 e8 gneE11"/>
    </vehicle>
    <vehicle id="191" depart="1114.02">
        <route edges="gneE10 gneE8 e11 e12 gneE12 e10"/>
    </vehicle>
    <vehicle id="192" depart="1119.86">
        <route edges="gneE1 e5 e12 gneE12 e10 gneE2 gneE4"/>
    </vehicle>
    <vehicle id="193" depart="1125.69">
        <route edges="gneE2 gneE4 gneE6 e7 e5 e6 gneE10 gneE8 e11"/>
    </vehicle>
    <vehicle id="194" depart="1131.52">
        <route edges="gneE6 e7 e5 e6 gneE10 gneE8 e11"/>
    </vehicle>
    <vehicle id="195" depart="1137.35">
        <route edges="e2 e8 gneE11 e14 e6 gneE10"/>
    </vehicle>
    <vehicle id="196" depart="1143.19">
        <route edges="e7 e8 gneE11"/>
    </vehicle>
    <vehicle id="197" depart="1149.02">
        <route edges="e8 gneE11 e14 e6"/>
    </vehicle>
    <vehicle id="198" depart="1154.85">
        <route edges="e2"/>
    </vehicle>
    <vehicle id="199" depart="1160.69">
        <route edges="gneE1 e9 gneE3 gneE5"/>
    </vehicle>
    <vehicle id="200" depart="1166.52">
        <route edges="e9 gneE3 gneE5 gneE1 e8 gneE11 e14"/>
    </vehicle>
    <vehicle id="201" depart="1172.35">
        <route edges="gneE10 gneE8 e11 e2 e8 gneE11"/>
    </vehicle>
    <vehicle id="202" depart="1178.18">
        <route edges="gneE2 gneE4 gneE6 e7 e5 e6 gneE10 gneE8 e11"/>
    </vehicle>
    <vehicle id="203" depart="1184.02">
        <route edges="e6"/>
    </vehicle>
    <vehicle id="204" depart="1189.85">
        <route edges="e14 e2 gneE2 gneE4 gneE6 e7"/>
    </vehicle>
    <vehicle id="205" depart="1195.68">
        <route edges="e9 gneE3 gneE5 gneE1 e5 e12 gneE12 e10 gneE2 gneE4 gneE6"/>
    </vehicle>
    <vehicle id="206" depart="1201.51">
        <route edges="gneE12 e10 e9 gneE3 gneE5 gneE1"/>
    </vehicle>
    <vehicle id="207" depart="1207.35">
        <route edges="gneE6 e7 e5 e6"/>
    </vehicle>
    <vehicle id="208" depart="1213.18">
        <route edges="gneE12 e10 e5 e6"/>
    </vehicle>
    <vehicle id="209" depart="1219.01">
        <route edges="e9 gneE3 gneE5 gneE1 e5 e6 gneE10"/>
    </vehicle>
    <vehicle id="210" depart="1224.84">
        <route edges="e8 gneE11"/>
    </vehicle>
    <vehicle id="211" depart="1230.68">
        <route edges="e14 e2 gneE2 gneE4 gneE6 e7 e5"/>
    </vehicle>
    <vehicle id="212" depart="1236.51">
        <route edges="e2 e8 gneE11 e14 e6"/>
    </vehicle>
    <vehicle id="213" depart="1242.34">
        <route edges="e3 e13 gneE7"/>
    </vehicle>
    <vehicle id="214" depart="1248.17">
        <route edges="e9 gneE3 gneE5 gneE1 e5 e12"/>
    </vehicle>
    <vehicle id="215" depart="1254.01">
        <route edges="gneE8 e11 e12 gneE12 e10 e5 e13 gneE7 gneE9 e3"/>
    </vehicle>
    <vehicle id="216" depart="1259.84">
        <route edges="gneE12 e10 e5 e13 gneE7 gneE9"/>
    </vehicle>
    <vehicle id="217" depart="1265.67">
        <route edges="e10 gneE2 gneE4 gneE6"/>
    </vehicle>
    <vehicle id="218" depart="1271.50">
        <route edges="gneE8 e11 e12"/>
    </vehicle>
    <vehicle id="219" depart="1277.34">
        <route edges="gneE8 e11 e12 gneE12 e10 e5 e13"/>
    </vehicle>
    <vehicle id="220" depart="1283.17">
        <route edges="gneE5 gneE1 e5 e12"/>
    </vehicle>
    <vehicle id="221" depart="1289.00">
        <route edges="gneE11 e14 e2 gneE2 gneE4 gneE6 e7"/>
    </vehicle>
    <vehicle id="222" depart="1294.83">
        <route edges="e5 e12 gneE12 e10 gneE2 gneE4"/>
    </vehicle>
    <vehicle id="223" depart="1300.67">
        <route edges="gneE1 e9"/>
    </vehicle>
    <vehicle id="224" depart="1306.50">
        <route edges="e7 e5 e13 gneE7"/>
    </vehicle>
    <vehicle id="225" depart="1312.33">
        <route edges="e12 gneE12 e10 gneE2 gneE4 gneE6 e7 e8 gneE11 e14"/>
    </vehicle>
    <vehicle id="226" depart="1318.17">
        <route edges="e10 e5 e13 gneE7 gneE9 e3 e2"/>
    </vehicle>
    <vehicle id="227" depart="1324.00">
        <route edges="gneE6 e7 e5 e12 gneE12 e10 e9 gneE3 gneE5 gneE1"/>
    </vehicle>
    <vehicle id="228" depart="1329.83">
        <route edges="gneE9 e3 e2 e9 gneE3 gneE5 gneE1"/>
    </vehicle>
    <vehicle id="229" depart="1335.66">
        <route edges="gneE7 gneE9 e3 e2 e8 gneE11 e14"/>
    </vehicle>
    <vehicle id="230" depart="1341.50">
        <route edges="e7 e5 e12 gneE12 e10 e9 gneE3 gneE5"/>
    </vehicle>
    <vehicle id="231" depart="1347.33">
        <route edges="e9 gneE3 gneE5 gneE1 e5 e6 gneE10"/>
    </vehicle>
    <vehicle id="232" depart="1353.16">
        <route edges="gneE11 e14 e2 gneE2 gneE4 gneE6 e7"/>
    </vehicle>
    <vehicle id="233" depart="1358.99">
        <route edges="e10 gneE2 gneE4 gneE6 e7 e8 gneE11"/>
    </vehicle>
    <vehicle id="234" depart="1364.83">
        <route edges="gneE9 e3 e2 gneE2 gneE4"/>
    </vehicle>
    <vehicle id="235" depart="1370.66">
        <route edges="e3 e12 gneE12 e10 e5 e6 gneE10"/>
    </vehicle>
    <vehicle id="236" depart="1376.49">
        <route edges="gneE7 gneE9 e3 e2 e9 gneE3 gneE5"/>
    </vehicle>
    <vehicle id="237" depart="1382.32">
        <route edges="e5 e6 gneE10 gneE8 e11"/>
    </vehicle>
    <vehicle id="238" depart="1388.16">
        <route edges="gneE5 gneE1 e5 e13 gneE7 gneE9"/>
    </vehicle>
    <vehicle id="239" depart="1393.99">
        <route edges="e7 gneE2"/>
    </vehicle>
    <vehicle id="240" depart="1399.82">
        <route edges="e8 gneE11 e14 e2"/>
    </vehicle>
    <vehicle id="241" depart="1405.65">
        <route edges="gneE8 e11 e6 gneE10"/>
    </vehicle>
    <vehicle id="242" depart="1411.49">
        <route edges="e12 gneE12 e10 gneE2 gneE4 gneE6 e7 e8"/>
    </vehicle>
    <vehicle id="243" depart="1417.32">
        <route edges="gneE12 e10 e9 gneE3 gneE5 gneE1"/>
    </vehicle>
    <vehicle id="244" depart="1423.15">
        <route edges="e7 e5 e13 gneE7 gneE9 e3"/>
    </vehicle>
    <vehicle id="245" depart="1428.98">
        <route edges="e11 e2 gneE2 gneE4 gneE6"/>
    </vehicle>
    <vehicle id="246" depart="1434.82">
        <route edges="e8 gneE11 e14 e6 gneE10 gneE8 e11"/>
    </vehicle>
    <vehicle id="247" depart="1440.65">
        <route edges="e11 e12 gneE12 e10"/>
    </vehicle>
    <vehicle id="248" depart="1446.48">
        <route edges="gneE11 e14 e2 gneE2 gneE4 gneE6 e7 e5"/>
    </vehicle>
    <vehicle id="249" depart="1452.31">
        <route edges="gneE3 gneE5 gneE1 e5"/>
    </vehicle>
    <vehicle id="250" depart="1458.15">
        <route edges="e9 gneE3 gneE5 gneE1 e5 e13"/>
    </vehicle>
    <vehicle id="251" depart="1463.98">
        <route edges="e3 e2 gneE2"/>
    </vehicle>
    <vehicle id="252" depart="1469.81">
        <route edges="e5 e12 gneE12 e10 e9 gneE3 gneE5"/>
    </vehicle>
    <vehicle id="253" depart="1475.65">
        <route edges="gneE3 gneE5 gneE1 e5 e12"/>
    </vehicle>
    <vehicle id="254" depart="1481.48">
        <route edges="gneE3 gneE5 gneE1 e5 e13 gneE7 gneE9 e3"/>
    </vehicle>
    <vehicle id="255" depart="1487.31">
        <route edges="gneE5 gneE1 e5 e12 gneE12 e10 gneE2 gneE4 gneE6"/>
    </vehicle>
    <vehicle id="256" depart="1493.14">
        <route edges="e2 e9 gneE3 gneE5 gneE1"/>
    </vehicle>
    <vehicle id="257" depart="1498.98">
        <route edges="e6 gneE10 gneE8 e11 e12 gneE12 e10 e5 e13 gneE7"/>
    </vehicle>
    <vehicle id="258" depart="1504.81">
        <route edges="e2 e8 gneE11"/>
    </vehicle>
    <vehicle id="259" depart="1510.64">
        <route edges="gneE8 e11 e12 gneE12 e10 e5 e13 gneE7"/>
    </vehicle>
    <vehicle id="260" depart="1516.47">
        <route edges="e13 gneE7 gneE9 e3 e12 gneE12 e10"/>
    </vehicle>
    <vehicle id="261" depart="1522.31">
        <route edges="gneE7"/>
    </vehicle>
    <vehicle id="262" depart="1528.14">
        <route edges="e8 gneE11 e14 e13"/>
    </vehicle>
    <vehicle id="263" depart="1533.97">
        <route edges="e12 gneE12 e10 gneE2 gneE4 gneE6 e7"/>
    </vehicle>
    <vehicle id="264" depart="1539.80">
        <route edges="gneE9 e3 e2 e9 gneE3"/>
    </vehicle>
    <vehicle id="265" depart="1545.64">
        <route edges="e12 gneE12 e10 e5 e13"/>
    </vehicle>
    <vehicle id="266" depart="1551.47">
        <route edges="e10 e9 gneE3 gneE5"/>
    </vehicle>
    <vehicle id="267" depart="1557.30">
        <route edges="gneE2 gneE4 gneE6 e7 e5 e13 gneE7 gneE9"/>
    </vehicle>
    <vehicle id="268" depart="1563.13">
        <route edges="gneE12 e10 e5 e6 gneE10"/>
    </vehicle>
    <vehicle id="269" depart="1568.97">
        <route edges="gneE9 e3 e12"/>
    </vehicle>
    <vehicle id="270" depart="1574.80">
        <route edges="e9 gneE3 gneE5 gneE1"/>
    </vehicle>
    <vehicle id="271" depart="1580.63">
        <route edges="gneE2 gneE4 gneE6 e7"/>
    </vehicle>
    <vehicle id="272" depart="1586.46">
        <route edges="gneE6"/>
    </vehicle>
    <vehicle id="273" depart="1592.30">
        <route edges="e11 e12"/>
    </vehicle>
    <vehicle id="274" depart="1598.13">
        <route edges="gneE2 gneE4 gneE6 e7 e5 e6 gneE10"/>
    </vehicle>
    <vehicle id="275" depart="1603.96">
        <route edges="gneE3 gneE5 gneE1 e5 e12 gneE12 e10"/>
    </vehicle>
    <vehicle id="276" depart="1609.79">
        <route edges="gneE1 e8"/>
    </vehicle>
    <vehicle id="277" depart="1615.63">