<?xml version="1.0" encoding="UTF-8"?>

<!-- generated on Tue Dec 22 02:11:24 2020 by Eclipse SUMO duarouter Version 1.6.0
<configuration xmlns:xsi="http://www.w3.org/2001/XMLSchema-instance" xsi:noNamespaceSchemaLocation="http://sumo.dlr.de/xsd/duarouterConfiguration.xsd">

    <input>
        <net-file value="configs/two_inter/two_inter.net.xml"/>
        <route-files value="configs/two_inter/trips.trips.xml"/>
    </input>

    <output>
        <output-file value="configs/two_inter/traffic.rou.xml"/>
        <alternatives-output value="configs/two_inter/traffic.rou.alt.xml"/>
    </output>

    <time>
        <begin value="0"/>
        <end value="2075"/>
    </time>

    <report>
        <no-warnings value="true"/>
        <ignore-errors value="true"/>
        <no-step-log value="true"/>
    </report>

</configuration>
-->

<routes xmlns:xsi="http://www.w3.org/2001/XMLSchema-instance" xsi:noNamespaceSchemaLocation="http://sumo.dlr.de/xsd/routes_file.xsd">
    <vehicle id="0" depart="0.00">
        <route edges="gneE1 e8 gneE11 e14"/>
    </vehicle>
    <vehicle id="1" depart="2.12">
        <route edges="e11 e2 e8 gneE11 e14"/>
    </vehicle>
    <vehicle id="2" depart="4.24">
        <route edges="gneE5 gneE1 e5 e12 gneE12 e10 gneE2"/>
    </vehicle>
    <vehicle id="3" depart="6.37">
        <route edges="gneE9 e3 e12 gneE12 e10 e5 e6"/>
    </vehicle>
    <vehicle id="4" depart="8.49">
        <route edges="gneE8 e11 e2 gneE2 gneE4 gneE6"/>
    </vehicle>
    <vehicle id="5" depart="10.61">
        <route edges="e10 e5 e13 gneE7 gneE9 e3 e2"/>
    </vehicle>
    <vehicle id="6" depart="12.73">
        <route edges="e3 e12 gneE12 e10 e5 e6"/>
    </vehicle>
    <vehicle id="7" depart="14.85">
        <route edges="e8 gneE11 e14 e2 gneE2 gneE4 gneE6 e7"/>
    </vehicle>
    <vehicle id="8" depart="16.97">
        <route edges="gneE3 gneE5 gneE1 e5 e12 gneE12 e10 gneE2 gneE4 gneE6"/>
    </vehicle>
    <vehicle id="9" depart="19.10">
        <route edges="gneE5 gneE1 e9"/>
    </vehicle>
    <vehicle id="10" depart="21.22">
        <route edges="gneE9 e3 e2"/>
    </vehicle>
    <vehicle id="11" depart="23.34">
        <route edges="gneE11 e14 e2 gneE2 gneE4 gneE6 e7"/>
    </vehicle>
    <vehicle id="12" depart="25.46">
        <route edges="gneE9 e3 e12 gneE12 e10 e5"/>
    </vehicle>
    <vehicle id="13" depart="27.58">
        <route edges="gneE10 gneE8 e11 e2 gneE2 gneE4"/>
    </vehicle>
    <vehicle id="14" depart="29.70">
        <route edges="e8 gneE11 e14 e13 gneE7 gneE9 e3 e12 gneE12"/>
    </vehicle>
    <vehicle id="15" depart="31.83">
        <route edges="gneE1 e9 gneE3 gneE5"/>
    </vehicle>
    <vehicle id="16" depart="33.95">
        <route edges="e5 e12"/>
    </vehicle>
    <vehicle id="17" depart="36.07">
        <route edges="e14 e2 gneE2 gneE4 gneE6 e7 e5"/>
    </vehicle>
    <vehicle id="18" depart="38.19">
        <route edges="gneE1 e8 gneE11 e14 e2"/>
    </vehicle>
    <vehicle id="19" depart="40.31">
        <route edges="gneE10 gneE8 e11 e2 gneE2"/>
    </vehicle>
    <vehicle id="20" depart="42.43">
        <route edges="e3 e12 gneE12 e10 e5 e6 gneE10 gneE8"/>
    </vehicle>
    <vehicle id="21" depart="44.56">
        <route edges="gneE4 gneE6 e7 e5 e12 gneE12 e10 e9 gneE3 gneE5 gneE1"/>
    </vehicle>
    <vehicle id="22" depart="46.68">
        <route edges="e10 e9 gneE3"/>
    </vehicle>
    <vehicle id="23" depart="48.80">
        <route edges="gneE3 gneE5 gneE1 e5 e6 gneE10"/>
    </vehicle>
    <vehicle id="24" depart="50.92">
        <route edges="e7 e5 e12 gneE12 e10"/>
    </vehicle>
    <vehicle id="25" depart="53.04">
        <route edges="e3 e2 gneE2 gneE4 gneE6 e7"/>
    </vehicle>
    <vehicle id="26" depart="55.16">
        <route edges="gneE4 gneE6 e7 e5 e13 gneE7 gneE9 e3"/>
    </vehicle>
    <vehicle id="27" depart="57.29">
        <route edges="e12 gneE12 e10 gneE2 gneE4 gneE6 e7"/>
    </vehicle>
    <vehicle id="28" depart="59.41">
        <route edges="e2 gneE2 gneE4 gneE6 e7"/>
    </vehicle>
    <vehicle id="29" depart="61.53">
        <route edges="e10 e5 e13 gneE7"/>
    </vehicle>
    <vehicle id="30" depart="63.65">
        <route edges="e9 gneE3 gneE5 gneE1 e5"/>
    </vehicle>
    <vehicle id="31" depart="65.77">
        <route edges="gneE2"/>
    </vehicle>
    <vehicle id="32" depart="67.89">
        <route edges="gneE3 gneE5 gneE1 e5 e12 gneE12 e10 gneE2 gneE4 gneE6 e7"/>
    </vehicle>
    <vehicle id="33" depart="70.02">
        <route edges="gneE3 gneE5 gneE1 e5 e6 gneE10"/>
    </vehicle>
    <vehicle id="34" depart="72.14">
        <route edges="e9 gneE3 gneE5 gneE1 e8 gneE11 e14"/>
    </vehicle>
    <vehicle id="35" depart="74.26">
        <route edges="e11 e2 e8"/>
    </vehicle>
    <vehicle id="36" depart="76.38">
        <route edges="e5 e13 gneE7 gneE9 e3 e2 e8 gneE11 e14"/>
    </vehicle>
    <vehicle id="37" depart="78.50">
        <route edges="e5 e13"/>
    </vehicle>
    <vehicle id="38" depart="80.62">
        <route edges="gneE6 e7 e5"/>
    </vehicle>
    <vehicle id="39" depart="82.75">
        <route edges="e13 gneE7 gneE9 e3 e12 gneE12 e10 e5 e6 gneE10"/>
    </vehicle>
    <vehicle id="40" depart="84.87">
        <route edges="gneE1 e5"/>
    </vehicle>
    <vehicle id="41" depart="86.99">
        <route edges="gneE6 e7 e5 e13 gneE7 gneE9"/>
    </vehicle>
    <vehicle id="42" depart="89.11">
        <route edges="gneE7 gneE9 e3 e12 gneE12 e10 e5 e6 gneE10 gneE8 e11"/>
    </vehicle>
    <vehicle id="43" depart="91.23">
        <route edges="e3 e2 gneE2 gneE4"/>
    </vehicle>
    <vehicle id="44" depart="93.35">
        <route edges="e14 e2 gneE2 gneE4"/>
    </vehicle>
    <vehicle id="45" depart="95.48">
        <route edges="e10 gneE2 gneE4 gneE6 e7 e8"/>
    </vehicle>
    <vehicle id="46" depart="97.60">
        <route edges="gneE11 e14"/>
    </vehicle>
    <vehicle id="47" depart="99.72">
        <route edges="e8 gneE11 e14 e6 gneE10 gneE8"/>
    </vehicle>
    <vehicle id="48" depart="101.84">
        <route edges="e10 e5 e6 gneE10 gneE8"/>
    </vehicle>
    <vehicle id="49" depart="103.96">
        <route edges="gneE2 gneE4 gneE6 e7 e5 e12 gneE12 e10 e9 gneE3"/>
    </vehicle>
    <vehicle id="50" depart="106.08">
        <route edges="gneE10 gneE8 e11 e12 gneE12 e10 e5 e13"/>
    </vehicle>
    <vehicle id="51" depart="108.21">
        <route edges="e6 gneE10 gneE8 e11 e2 e9 gneE3 gneE5 gneE1"/>
    </vehicle>
    <vehicle id="52" depart="110.33">
        <route edges="gneE9 e3 e2 gneE2 gneE4 gneE6 e7"/>
    </vehicle>
    <vehicle id="53" depart="112.45">
        <route edges="e13 gneE7"/>
    </vehicle>
    <vehicle id="54" depart="114.57">
        <route edges="e11 e6 gneE10"/>
    </vehicle>
    <vehicle id="55" depart="116.69">
        <route edges="e5 e6"/>
    </vehicle>
    <vehicle id="56" depart="118.81">
        <route edges="gneE7 gneE9 e3 e2 gneE2 gneE4 gneE6"/>
    </vehicle>
    <vehicle id="57" depart="120.94">
        <route edges="e9 gneE3 gneE5 gneE1 e8 gneE11 e14 e2"/>
    </vehicle>
    <vehicle id="58" depart="123.06">
        <route edges="e6 gneE10 gneE8 e11 e12 gneE12 e10 e5 e13 gneE7 gneE9 e3"/>
    </vehicle>
    <vehicle id="59" depart="125.18">
        <route edges="e12 gneE12"/>
    </vehicle>
    <vehicle id="60" depart="127.30">
        <route edges="e13 gneE7 gneE9 e3 e12"/>
    </vehicle>
    <vehicle id="61" depart="129.42">
        <route edges="e7 e5 e12 gneE12 e10"/>
    </vehicle>
    <vehicle id="62" depart="131.54">
        <route edges="e8 gneE11 e14 e2 e9 gneE3 gneE5 gneE1"/>
    </vehicle>
    <vehicle id="63" depart="133.67">
        <route edges="e8 gneE11 e14 e2"/>
    </vehicle>
    <vehicle id="64" depart="135.79">
        <route edges="e11 e2 e9 gneE3"/>
    </vehicle>
    <vehicle id="65" depart="137.91">
        <route edges="gneE2 gneE4 gneE6 e7 e5 e6 gneE10 gneE8 e11"/>
    </vehicle>
    <vehicle id="66" depart="140.03">
        <route edges="e11 e2 e9 gneE3"/>
    </vehicle>
    <vehicle id="67" depart="142.15">
        <route edges="gneE10 gneE8 e11 e2 e9 gneE3 gneE5"/>
    </vehicle>
    <vehicle id="68" depart="144.27">
        <route edges="e7 e5 e13 gneE7 gneE9"/>
    </vehicle>
    <vehicle id="69" depart="146.40">
        <route edges="e5 e13 gneE7 gneE9 e3 e2 e8 gneE11"/>
    </vehicle>
    <vehicle id="70" depart="148.52">
        <route edges="e5 e13 gneE7 gneE9"/>
    </vehicle>
    <vehicle id="71" depart="150.64">
        <route edges="e2 gneE2 gneE4 gneE6 e7 e5 e12 gneE12"/>
    </vehicle>
    <vehicle id="72" depart="152.76">
        <route edges="e10 e5 e6 gneE10 gneE8 e11"/>
    </vehicle>
    <vehicle id="73" depart="154.88">
        <route edges="e9 gneE3 gneE5 gneE1 e5 e12"/>
    </vehicle>
    <vehicle id="74" depart="157.00">
        <route edges="gneE1 e5 e12 gneE12 e10 gneE2 gneE4 gneE6"/>
    </vehicle>
    <vehicle id="75" depart="159.13">
        <route edges="gneE1 e8 gneE11 e14"/>
    </vehicle>
    <vehicle id="76" depart="161.25">
        <route edges="e2 e8 gneE11 e14 e13 gneE7 gneE9 e3"/>
    </vehicle>
    <vehicle id="77" depart="163.37">
        <route edges="e8 gneE11 e14 e6"/>
    </vehicle>
    <vehicle id="78" depart="165.49">
        <route edges="e3 e12 gneE12 e10 e5 e6"/>
    </vehicle>
    <vehicle id="79" depart="167.61">
        <route edges="gneE2 gneE4 gneE6 e7 e8 gneE11 e14"/>
    </vehicle>
    <vehicle id="80" depart="169.73">
        <route edges="e9 gneE3 gneE5 gneE1 e5 e12 gneE12 e10 gneE2 gneE4 gneE6"/>
    </vehicle>
    <vehicle id="81" depart="171.86">
        <route edges="e11 e2 e9 gneE3 gneE5"/>
    </vehicle>
    <vehicle id="82" depart="173.98">
        <route edges="gneE8 e11 e2 e8 gneE11 e14"/>
    </vehicle>
    <vehicle id="83" depart="176.10">
        <route edges="e7 e8"/>
    </vehicle>
    <vehicle id="84" depart="178.22">
        <route edges="e9 gneE3 gneE5 gneE1 e5 e6 gneE10 gneE8"/>
    </vehicle>
    <vehicle id="85" depart="180.34">
        <route edges="gneE9 e3 e2 e8 gneE11"/>
    </vehicle>
    <vehicle id="86" depart="182.46">
        <route edges="gneE11 e14 e2 gneE2 gneE4 gneE6 e7"/>
    </vehicle>
    <vehicle id="87" depart="184.59">
        <route edges="e14"/>
    </vehicle>
    <vehicle id="88" depart="186.71">
        <route edges="gneE3 gneE5 gneE1 e5 e6 gneE10"/>
    </vehicle>
    <vehicle id="89" depart="188.83">
        <route edges="e12 gneE12 e10 e9 gneE3 gneE5"/>
    </vehicle>
    <vehicle id="90" depart="190.95">
        <route edges="e12 gneE12 e10"/>
    </vehicle>
    <vehicle id="91" depart="193.07">
        <route edges="e9 gneE3 gneE5 gneE1"/>
    </vehicle>
    <vehicle id="92" depart="195.19">
        <route edges="gneE2 gneE4 gneE6"/>
    </vehicle>
    <vehicle id="93" depart="197.32">
        <route edges="e10 e9 gneE3 gneE5 gneE1"/>
    </vehicle>
    <vehicle id="94" depart="199.44">
        <route edges="e2"/>
    </vehicle>
    <vehicle id="95" depart="201.56">
        <route edges="gneE8 e11 e12 gneE12 e10 e5 e13 gneE7 gneE9 e3"/>
    </vehicle>
    <vehicle id="96" depart="203.68">
        <route edges="gneE1 e8 gneE11 e14 e2"/>
    </vehicle>
    <vehicle id="97" depart="205.80">
        <route edges="gneE7 gneE9 e3 e2"/>
    </vehicle>
    <vehicle id="98" depart="207.92">
        <route edges="gneE11 e14 e13 gneE7 gneE9 e3 e12"/>
    </vehicle>
    <vehicle id="99" depart="210.05">
        <route edges="gneE12 e10 gneE2"/>
    </vehicle>
    <vehicle id="100" depart="212.17">
        <route edges="e13 gneE7 gneE9 e3 e2 gneE2 gneE4 gneE6"/>
    </vehicle>
    <vehicle id="101" depart="214.29">
        <route edges="e5 e12 gneE12 e10 e9 gneE3"/>
    </vehicle>
    <vehicle id="102" depart="216.41">
        <route edges="e10 e9 gneE3 gneE5"/>
    </vehicle>
    <vehicle id="103" depart="218.53">
        <route edges="e5 e13 gneE7 gneE9 e3 e2 e8 gneE11 e14"/>
    </vehicle>
    <vehicle id="104" depart="220.65">
        <route edges="gneE9 e3 e12 gneE12 e10 e5 e6"/>
    </vehicle>
    <vehicle id="105" depart="222.78">
        <route edges="e11 e2 gneE2 gneE4 gneE6 e7"/>
    </vehicle>
    <vehicle id="106" depart="224.90">
        <route edges="gneE5 gneE1 e5 e6 gneE10"/>
    </vehicle>
    <vehicle id="107" depart="227.02">
        <route edges="gneE2 gneE4 gneE6 e7 e5 e6"/>
    </vehicle>
    <vehicle id="108" depart="229.14">
        <route edges="e9 gneE3 gneE5 gneE1 e5 e12 gneE12 e10"/>
    </vehicle>
    <vehicle id="109" depart="231.26">
        <route edges="gneE10 gneE8 e11 e12 gneE12 e10 e5 e13 gneE7"/>
    </vehicle>
    <vehicle id="110" depart="233.38">
        <route edges="gneE6 e7 e5 e12"/>
    </vehicle>
    <vehicle id="111" depart="235.51">
        <route edges="e8 gneE11 e14 e2 e9 gneE3 gneE5"/>
    </vehicle>
    <vehicle id="112" depart="237.63">
        <route edges="gneE7 gneE9 e3 e2 e9 gneE3"/>
    </vehicle>
    <vehicle id="113" depart="239.75">
        <route edges="e5 e13"/>
    </vehicle>
    <vehicle id="114" depart="241.87">
        <route edges="e3 e2 gneE2 gneE4 gneE6"/>
    </vehicle>
    <vehicle id="115" depart="243.99">
        <route edges="e3 e13 gneE7"/>
    </vehicle>
    <vehicle id="116" depart="246.11">
        <route edges="gneE2 gneE4 gneE6 e7 e5 e13 gneE7 gneE9"/>
    </vehicle>
    <vehicle id="117" depart="248.24">
        <route edges="e14 e13"/>
    </vehicle>
    <vehicle id="118" depart="250.36">
        <route edges="e10 gneE2 gneE4 gneE6 e7 e8 gneE11"/>
    </vehicle>
    <vehicle id="119" depart="252.48">
        <route edges="gneE9 e3 e12"/>
    </vehicle>
    <vehicle id="120" depart="254.60">
        <route edges="gneE6 e7 e5 e13 gneE7 gneE9"/>
    </vehicle>
    <vehicle id="121" depart="256.72">
        <route edges="gneE5 gneE1 e5 e6 gneE10 gneE8"/>
    </vehicle>
    <vehicle id="122" depart="258.84">
        <route edges="e3 e12 gneE12 e10"/>
    </vehicle>
    <vehicle id="123" depart="260.97">
        <route edges="e12 gneE12 e10 e5 e13 gneE7 gneE9 e3 e2"/>
    </vehicle>
    <vehicle id="124" depart="263.09">
        <route edges="e10 e9 gneE3 gneE5 gneE1"/>
    </vehicle>
    <vehicle id="125" depart="265.21">
        <route edges="e12 gneE12 e10 e5"/>
    </vehicle>
    <vehicle id="126" depart="267.33">
        <route edges="e2 gneE2 gneE4 gneE6 e7 e5"/>
    </vehicle>
    <vehicle id="127" depart="269.45">
        <route edges="gneE3 gneE5 gneE1 e5 e12 gneE12 e10 gneE2 gneE4 gneE6"/>
    </vehicle>
    <vehicle id="128" depart="271.57">
        <route edges="gneE7 gneE9 e3 e2 gneE2 gneE4 gneE6 e7"/>
    </vehicle>
    <vehicle id="129" depart="273.70">
        <route edges="gneE11 e14 e13 gneE7 gneE9 e3 e12 gneE12"/>
    </vehicle>
    <vehicle id="130" depart="275.82">
        <route edges="e14 e6 gneE10 gneE8"/>
    </vehicle>
    <vehicle id="131" depart="277.94">
        <route edges="e8 gneE11 e14 e2"/>
    </vehicle>
    <vehicle id="132" depart="280.06">
        <route edges="e10 gneE2"/>
    </vehicle>
    <vehicle id="133" depart="282.18">
        <route edges="gneE7 gneE9 e3 e2 e9 gneE3"/>
    </vehicle>
    <vehicle id="134" depart="284.30">
        <route edges="gneE3 gneE5 gneE1 e5 e12 gneE12 e10 gneE2 gneE4 gneE6 e7"/>
    </vehicle>
    <vehicle id="135" depart="286.43">
        <route edges="e10 e5 e6 gneE10 gneE8 e11"/>
    </vehicle>
    <vehicle id="136" depart="288.55">
        <route edges="e12 gneE12 e10 e9 gneE3"/>
    </vehicle>
    <vehicle id="137" depart="290.67">
        <route edges="gneE2 gneE4 gneE6 e7 e8 gneE11"/>
    </vehicle>
    <vehicle id="138" depart="292.79">
        <route edges="gneE12 e10 e5 e13"/>
    </vehicle>
    <vehicle id="139" depart="294.91">
        <route edges="e2 gneE2"/>
    </vehicle>
    <vehicle id="140" depart="297.03">
        <route edges="e11 e12 gneE12 e10 e5 e13 gneE7 gneE9"/>
    </vehicle>
    <vehicle id="141" depart="299.16">
        <route edges="e12 gneE12 e10 e5 e6 gneE10"/>
    </vehicle>
    <vehicle id="142" depart="301.28">
        <route edges="e5 e13 gneE7 gneE9 e3 e2"/>
    </vehicle>
    <vehicle id="143" depart="303.40">
        <route edges="e13 gneE7 gneE9 e3 e12 gneE12 e10 e5 e6 gneE10"/>
    </vehicle>
    <vehicle id="144" depart="305.52">
        <route edges="gneE12 e10"/>
    </vehicle>
    <vehicle id="145" depart="307.64">
        <route edges="e5 e12"/>
    </vehicle>
    <vehicle id="146" depart="309.76">
        <route edges="gneE9 e3 e13 gneE7"/>
    </vehicle>
    <vehicle id="147" depart="311.89">
        <route edges="e10 e9"/>
    </vehicle>
    <vehicle id="148" depart="314.01">
        <route edges="e13 gneE7 gneE9 e3 e2 e8 gneE11"/>
    </vehicle>
    <vehicle id="149" depart="316.13">
        <route edges="gneE1 e8 gneE11 e14 e2"/>
    </vehicle>
    <vehicle id="150" depart="318.25">
        <route edges="e6 gneE10 gneE8 e11 e2 e9 gneE3 gneE5"/>
    </vehicle>
    <vehicle id="151" depart="320.37">
        <route edges="e10 e5 e13 gneE7 gneE9 e3 e2"/>
    </vehicle>
    <vehicle id="152" depart="322.49">
        <route edges="gneE8 e11 e2 gneE2 gneE4 gneE6"/>
    </vehicle>
    <vehicle id="153" depart="324.62">
        <route edges="gneE7 gneE9 e3 e12 gneE12 e10"/>
    </vehicle>
    <vehicle id="154" depart="326.74">
        <route edges="gneE2 gneE4 gneE6 e7 e8"/>
    </vehicle>
    <vehicle id="155" depart="328.86">
        <route edges="e5 e12 gneE12 e10 e9 gneE3"/>
    </vehicle>
    <vehicle id="156" depart="330.98">
        <route edges="e9 gneE3 gneE5 gneE1 e8 gneE11 e14"/>
    </vehicle>
    <vehicle id="157" depart="333.10">
        <route edges="e10 e5 e6"/>
    </vehicle>
    <vehicle id="158" depart="335.22">
        <route edges="gneE7 gneE9 e3 e12 gneE12 e10 e5 e6"/>
    </vehicle>
    <vehicle id="159" depart="337.35">
        <route edges="e2 gneE2 gneE4 gneE6 e7 e5"/>
    </vehicle>
    <vehicle id="160" depart="339.47">
        <route edges="e10 e5 e13 gneE7 gneE9 e3"/>
    </vehicle>
    <vehicle id="161" depart="341.59">
        <route edges="e10 e5 e13 gneE7 gneE9 e3 e2"/>
    </vehicle>
    <vehicle id="162" depart="343.71">
        <route edges="gneE1 e5 e12 gneE12 e10"/>
    </vehicle>
    <vehicle id="163" depart="345.83">
        <route edges="gneE10 gneE8 e11 e12 gneE12 e10 e5 e13"/>
    </vehicle>
    <vehicle id="164" depart="347.96">
        <route edges="gneE12 e10 e5 e13 gneE7 gneE9 e3"/>
    </vehicle>
    <vehicle id="165" depart="350.08">
        <route edges="e11 e2 e9"/>
    </vehicle>
    <vehicle id="166" depart="352.20">
        <route edges="gneE2 gneE4 gneE6 e7 e5 e13 gneE7 gneE9"/>
    </vehicle>
    <vehicle id="167" depart="354.32">
        <route edges="e9 gneE3 gneE5 gneE1 e5 e12 gneE12 e10 gneE2 gneE4"/>
    </vehicle>
    <vehicle id="168" depart="356.44">
        <route edges="gneE4 gneE6 e7 e8 gneE11"/>
    </vehicle>
    <vehicle id="169" depart="358.56">
        <route edges="gneE4 gneE6 e7 e5"/>
    </vehicle>
    <vehicle id="170" depart="360.69">
        <route edges="e6 gneE10 gneE8 e11 e2 e8 gneE11 e14"/>
    </vehicle>
    <vehicle id="171" depart="362.81">
        <route edges="e9 gneE3 gneE5 gneE1 e5 e13 gneE7"/>
    </vehicle>
    <vehicle id="172" depart="364.93">
        <route edges="gneE7 gneE9 e3 e2 gneE2 gneE4 gneE6 e7"/>
    </vehicle>
    <vehicle id="173" depart="367.05">
        <route edges="e14 e13 gneE7"/>
    </vehicle>
    <vehicle id="174" depart="369.17">
        <route edges="e14 e2 gneE2 gneE4 gneE6 e7 e5"/>
    </vehicle>
    <vehicle id="175" depart="371.29">
        <route edges="gneE6 e7 e5 e12 gneE12 e10 e9"/>
    </vehicle>
    <vehicle id="176" depart="373.42">
        <route edges="e7 gneE2 gneE4 gneE6"/>
    </vehicle>
    <vehicle id="177" depart="375.54">
        <route edges="gneE4 gneE6 e7 e5 e6 gneE10"/>
    </vehicle>
    <vehicle id="178" depart="377.66">
        <route edges="gneE11 e14 e13"/>
    </vehicle>
    <vehicle id="179" depart="379.78">
        <route edges="e6 gneE10 gneE8 e11 e12 gneE12 e10 e5 e13 gneE7 gneE9 e3"/>
    </vehicle>
    <vehicle id="180" depart="381.90">
        <route edges="e7 gneE2 gneE4 gneE6"/>
    </vehicle>
    <vehicle id="181" depart="384.02">
        <route edges="e7 e5 e13 gneE7 gneE9 e3"/>
    </vehicle>
    <vehicle id="182" depart="386.15">
        <route edges="e11"/>
    </vehicle>
    <vehicle id="183" depart="388.27">
        <route edges="gneE12 e10 gneE2 gneE4 gneE6"/>
    </vehicle>
    <vehicle id="184" depart="390.39">
        <route edges="gneE6 e7 e5 e12"/>
    </vehicle>
    <vehicle id="185" depart="392.51">
        <route edges="gneE10 gneE8 e11 e2 gneE2 gneE4"/>
    </vehicle>
    <vehicle id="186" depart="394.63">
        <route edges="gneE7 gneE9 e3 e2 e9 gneE3 gneE5 gneE1"/>
    </vehicle>
    <vehicle id="187" depart="396.75">
        <route edges="e11 e12 gneE12 e10 e5 e13 gneE7 gneE9"/>
    </vehicle>
    <vehicle id="188" depart="398.88">
        <route edges="e5 e13"/>
    </vehicle>
    <vehicle id="189" depart="401.00">
        <route edges="e3 e2 e9 gneE3 gneE5"/>
    </vehicle>
    <vehicle id="190" depart="403.12">
        <route edges="gneE8"/>
    </vehicle>
    <vehicle id="191" depart="405.24">
        <route edges="e6 gneE10 gneE8 e11"/>
    </vehicle>
    <vehicle id="192" depart="407.36">
        <route edges="e13 gneE7 gneE9 e3 e2 e8"/>
    </vehicle>
    <vehicle id="193" depart="409.48">
        <route edges="gneE9 e3 e12 gneE12 e10 e5 e6 gneE10 gneE8"/>
    </vehicle>
    <vehicle id="194" depart="411.61">
        <route edges="gneE9 e3 e12 gneE12 e10 e5"/>
    </vehicle>
    <vehicle id="195" depart="413.73">
        <route edges="e13"/>
    </vehicle>
    <vehicle id="196" depart="415.85">
        <route edges="e14 e2 gneE2 gneE4 gneE6"/>
    </vehicle>
    <vehicle id="197" depart="417.97">
        <route edges="gneE5 gneE1 e5 e13"/>
    </vehicle>
    <vehicle id="198" depart="420.09">
        <route edges="e11 e2 e8 gneE11 e14"/>
    </vehicle>
    <vehicle id="199" depart="422.21">
        <route edges="e8"/>
    </vehicle>
    <vehicle id="200" depart="424.34">
        <route edges="gneE11 e14 e2 gneE2 gneE4 gneE6"/>
    </vehicle>
    <vehicle id="201" depart="426.46">
        <route edges="gneE5 gneE1 e5 e12 gneE12 e10 gneE2"/>
    </vehicle>
    <vehicle id="202" depart="428.58">
        <route edges="e12 gneE12 e10 gneE2 gneE4 gneE6 e7 e8 gneE11 e14"/>
    </vehicle>
    <vehicle id="203" depart="430.70">
        <route edges="gneE11 e14 e2 gneE2 gneE4 gneE6 e7 e5"/>
    </vehicle>
    <vehicle id="204" depart="432.82">
        <route edges="gneE5 gneE1 e5 e12 gneE12 e10 gneE2"/>
    </vehicle>
    <vehicle id="205" depart="434.94">
        <route edges="e13 gneE7 gneE9 e3 e12 gneE12 e10 e5 e6 gneE10 gneE8 e11"/>
    </vehicle>
    <vehicle id="206" depart="437.07">
        <route edges="gneE1 e5 e12 gneE12 e10"/>
    </vehicle>
    <vehicle id="207" depart="439.19">
        <route edges="gneE2 gneE4 gneE6 e7 e5 e12"/>
    </vehicle>
    <vehicle id="208" depart="441.31">
        <route edges="e13"/>
    </vehicle>
    <vehicle id="209" depart="443.43">
        <route edges="gneE8 e11 e2 e8"/>
    </vehicle>
    <vehicle id="210" depart="445.55">
        <route edges="gneE11 e14 e6"/>
    </vehicle>
    <vehicle id="211" depart="447.67">
        <route edges="e14 e6 gneE10"/>
    </vehicle>
    <vehicle id="212" depart="449.80">
        <route edges="gneE8 e11 e2 gneE2 gneE4 gneE6 e7"/>
    </vehicle>
    <vehicle id="213" depart="451.92">
        <route edges="gneE9 e3 e2 gneE2 gneE4 gneE6 e7"/>
    </vehicle>
    <vehicle id="214" depart="454.04">
        <route edges="gneE5 gneE1 e5 e12 gneE12 e10 gneE2"/>
    </vehicle>
    <vehicle id="215" depart="456.16">
        <route edges="gneE11 e14 e6"/>
    </vehicle>
    <vehicle id="216" depart="458.28">
        <route edges="e10 gneE2"/>
    </vehicle>
    <vehicle id="217" depart="460.40">
        <route edges="e10 e5 e6 gneE10 gneE8"/>
    </vehicle>
    <vehicle id="218" depart="462.53">
        <route edges="gneE1 e5 e12 gneE12 e10 gneE2"/>
    </vehicle>
    <vehicle id="219" depart="464.65">
        <route edges="e8 gneE11"/>
    </vehicle>
    <vehicle id="220" depart="466.77">
        <route edges="e2"/>
    </vehicle>
    <vehicle id="221" depart="468.89">
        <route edges="gneE6 e7 e5 e12 gneE12 e10 e9 gneE3 gneE5"/>
    </vehicle>
    <vehicle id="222" depart="471.01">
        <route edges="gneE4 gneE6 e7 e5"/>
    </vehicle>
    <vehicle id="223" depart="473.13">
        <route edges="e8 gneE11 e14 e13 gneE7 gneE9 e3 e12"/>
    </vehicle>
    <vehicle id="224" depart="475.26">
        <route edges="e8 gneE11 e14 e6 gneE10 gneE8 e11"/>
    </vehicle>
    <vehicle id="225" depart="477.38">
        <route edges="e5 e6 gneE10 gneE8"/>
    </vehicle>
    <vehicle id="226" depart="479.50">
        <route edges="gneE4 gneE6 e7"/>
    </vehicle>
    <vehicle id="227" depart="481.62">
        <route edges="e12 gneE12 e10 e5 e6 gneE10 gneE8 e11"/>
    </vehicle>
    <vehicle id="228" depart="483.74">
        <route edges="e14 e2 e8 gneE11"/>
    </vehicle>
    <vehicle id="229" depart="485.86">
        <route edges="gneE10 gneE8 e11 e12 gneE12 e10 e5"/>
    </vehicle>
    <vehicle id="230" depart="487.99">
        <route edges="gneE4 gneE6 e7 e8 gneE11"/>
    </vehicle>
    <vehicle id="231" depart="490.11">
        <route edges="e14 e2 gneE2 gneE4 gneE6 e7"/>
    </vehicle>
    <vehicle id="232" depart="492.23">
        <route edges="e3 e12 gneE12 e10 e5 e6"/>
    </vehicle>
    <vehicle id="233" depart="494.35">
        <route edges="gneE10 gneE8 e11 e12 gneE12 e10"/>
    </vehicle>
    <vehicle id="234" depart="496.47">
        <route edges="e5 e13 gneE7"/>
    </vehicle>
    <vehicle id="235" depart="498.59">
        <route edges="e10 e9 gneE3 gneE5 gneE1"/>
    </vehicle>
    <vehicle id="236" depart="500.72">
        <route edges="e13 gneE7 gneE9 e3 e2 gneE2 gneE4"/>
    </vehicle>
    <vehicle id="237" depart="502.84">
        <route edges="gneE3 gneE5 gneE1 e8 gneE11 e14 e2"/>
    </vehicle>
    <vehicle id="238" depart="504.96">
        <route edges="gneE2 gneE4 gneE6 e7 e5 e13"/>
    </vehicle>
    <vehicle id="239" depart="507.08">
        <route edges="gneE8 e11 e2 e8 gneE11"/>
    </vehicle>
    <vehicle id="240" depart="509.20">
        <route edges="e8 gneE11 e14 e6 gneE10 gneE8"/>
    </vehicle>
    <vehicle id="241" depart="511.32">
        <route edges="e2 e8 gneE11 e14 e13 gneE7"/>
    </vehicle>
    <vehicle id="242" depart="513.45">
        <route edges="e3 e12 gneE12"/>
    </vehicle>
    <vehicle id="243" depart="515.57">
        <route edges="gneE2 gneE4 gneE6 e7 e5 e13 gneE7 gneE9"/>
    </vehicle>
    <vehicle id="244" depart="517.69">
        <route edges="e14"/>
    </vehicle>
    <vehicle id="245" depart="519.81">
        <route edges="gneE8 e11 e2 gneE2 gneE4 gneE6"/>
    </vehicle>
    <vehicle id="246" depart="521.93">
        <route edges="e6 gneE10 gneE8 e11 e2 gneE2 gneE4 gneE6"/>
    </vehicle>
    <vehicle id="247" depart="524.05">
        <route edges="gneE11 e14 e2 gneE2 gneE4 gneE6 e7"/>
    </vehicle>
    <vehicle id="248" depart="526.18">
        <route edges="gneE11 e14 e13 gneE7 gneE9 e3 e12 gneE12"/>
    </vehicle>
    <vehicle id="249" depart="528.30">
        <route edges="gneE8 e11 e2 gneE2"/>
    </vehicle>
    <vehicle id="250" depart="530.42">
        <route edges="gneE5"/>
    </vehicle>
    <vehicle id="251" depart="532.54">
        <route edges="gneE7 gneE9 e3 e12 gneE12 e10"/>
    </vehicle>
    <vehicle id="252" depart="534.66">
        <route edges="e13 gneE7 gneE9 e3 e12 gneE12 e10 e5 e6 gneE10"/>
    </vehicle>
    <vehicle id="253" depart="536.78">
        <route edges="e5 e13 gneE7 gneE9 e3 e2 e8 gneE11 e14"/>
    </vehicle>
    <vehicle id="254" depart="538.91">
        <route edges="e5 e12 gneE12 e10 gneE2 gneE4 gneE6 e7"/>
    </vehicle>
    <vehicle id="255" depart="541.03">
        <route edges="e3 e12"/>
    </vehicle>
    <vehicle id="256" depart="543.15">
        <route edges="e7 e8 gneE11 e14"/>
    </vehicle>
    <vehicle id="257" depart="545.27">
        <route edges="e13 gneE7 gneE9 e3 e12 gneE12 e10 e5 e6 gneE10 gneE8"/>
    </vehicle>
    <vehicle id="258" depart="547.39">
        <route edges="e8 gneE11 e14 e13 gneE7"/>
    </vehicle>
    <vehicle id="259" depart="549.51">
        <route edges="e8 gneE11 e14 e13 gneE7 gneE9 e3 e12"/>
    </vehicle>
    <vehicle id="260" depart="551.64">
        <route edges="e10"/>
    </vehicle>
    <vehicle id="261" depart="553.76">
        <route edges="e8 gneE11 e14"/>
    </vehicle>
    <vehicle id="262" depart="555.88">
        <route edges="e12 gneE12 e10 e5 e13 gneE7 gneE9 e3"/>
    </vehicle>
    <vehicle id="263" depart="558.00">
        <route edges="e9 gneE3 gneE5 gneE1 e8 gneE11 e14"/>
    </vehicle>
    <vehicle id="264" depart="560.12">
        <route edges="e10 e9 gneE3"/>
    </vehicle>
    <vehicle id="265" depart="562.24">
        <route edges="gneE2 gneE4 gneE6 e7 e5"/>
    </vehicle>
    <vehicle id="266" depart="564.37">
        <route edges="e3 e2 gneE2 gneE4"/>
    </vehicle>
    <vehicle id="267" depart="566.49">
        <route edges="gneE4 gneE6 e7 e5 e12 gneE12 e10 e9 gneE3 gneE5"/>
    </vehicle>
    <vehicle id="268" depart="568.61">
        <route edges="gneE1 e5 e13 gneE7 gneE9 e3"/>
    </vehicle>
    <vehicle id="269" depart="570.73">
        <route edges="gneE4 gneE6 e7 e5 e6 gneE10"/>
    </vehicle>
    <vehicle id="270" depart="572.85">
        <route edges="e10 gneE2 gneE4"/>
    </vehicle>
    <vehicle id="271" depart="574.97">
        <route edges="e6 gneE10 gneE8 e11 e2 e9 gneE3"/>
    </vehicle>
    <vehicle id="272" depart="577.10">
        <route edges="gneE6 e7 e8 gneE11 e14"/>
    </vehicle>
    <vehicle id="273" depart="579.22">
        <route edges="gneE8 e11 e12 gneE12"/>
    </vehicle>
    <vehicle id="274" depart="581.34">
        <route edges="gneE11 e14 e13 gneE7 gneE9 e3 e12"/>
    </vehicle>
    <vehicle id="275" depart="583.46">