<?xml version="1.0" encoding="UTF-8"?>

<!-- generated on Mon Dec 14 11:23:06 2020 by Eclipse SUMO duarouter Version 1.6.0
<configuration xmlns:xsi="http://www.w3.org/2001/XMLSchema-instance" xsi:noNamespaceSchemaLocation="http://sumo.dlr.de/xsd/duarouterConfiguration.xsd">

    <input>
        <net-file value="configs/two_inter/two_inter.net.xml"/>
        <route-files value="configs/two_inter/trips.trips.xml"/>
    </input>

    <output>
        <output-file value="configs/two_inter/traffic.rou.xml"/>
        <alternatives-output value="configs/two_inter/traffic.rou.alt.xml"/>
    </output>

    <time>
        <begin value="0"/>
        <end value="2523"/>
    </time>

    <report>
        <no-warnings value="true"/>
        <ignore-errors value="true"/>
        <no-step-log value="true"/>
    </report>

</configuration>
-->

<routes xmlns:xsi="http://www.w3.org/2001/XMLSchema-instance" xsi:noNamespaceSchemaLocation="http://sumo.dlr.de/xsd/routes_file.xsd">
    <vehicle id="0" depart="0.00">
        <route edges="gneE8 e11 e2 gneE2 gneE4 gneE6 e7"/>
    </vehicle>
    <vehicle id="1" depart="4.06">
        <route edges="gneE10 gneE8 e11 e12 gneE12 e10 e5 e13 gneE7 gneE9"/>
    </vehicle>
    <vehicle id="2" depart="8.11">
        <route edges="e11 e12 gneE12 e10 e5 e13 gneE7 gneE9 e3"/>
    </vehicle>
    <vehicle id="3" depart="12.17">
        <route edges="gneE11 e14 e13 gneE7 gneE9"/>
    </vehicle>
    <vehicle id="4" depart="16.23">
        <route edges="gneE11 e14 e2 e8"/>
    </vehicle>
    <vehicle id="5" depart="20.28">
        <route edges="e5 e12 gneE12 e10 e9"/>
    </vehicle>
    <vehicle id="6" depart="24.34">
        <route edges="gneE6 e7 e5 e12 gneE12 e10 e9 gneE3 gneE5"/>
    </vehicle>
    <vehicle id="7" depart="28.39">
        <route edges="e11 e12 gneE12 e10 e5 e13 gneE7 gneE9"/>
    </vehicle>
    <vehicle id="8" depart="32.45">
        <route edges="gneE1 e5 e6 gneE10 gneE8 e11"/>
    </vehicle>
    <vehicle id="9" depart="36.51">
        <route edges="e5 e13 gneE7 gneE9"/>
    </vehicle>
    <vehicle id="10" depart="40.56">
        <route edges="gneE6 e7 e5 e13 gneE7"/>
    </vehicle>
    <vehicle id="11" depart="44.62">
        <route edges="e10 e5 e12"/>
    </vehicle>
    <vehicle id="12" depart="48.68">
        <route edges="gneE4 gneE6 e7 e5 e13 gneE7 gneE9 e3"/>
    </vehicle>
    <vehicle id="13" depart="52.73">
        <route edges="gneE1 e8"/>
    </vehicle>
    <vehicle id="14" depart="56.79">
        <route edges="gneE6 e7 e5 e13 gneE7"/>
    </vehicle>
    <vehicle id="15" depart="60.84">
        <route edges="gneE7 gneE9 e3 e2 e8 gneE11"/>
    </vehicle>
    <vehicle id="16" depart="64.90">
        <route edges="gneE9 e3 e12 gneE12 e10"/>
    </vehicle>
    <vehicle id="17" depart="68.96">
        <route edges="e7 e5 e6"/>
    </vehicle>
    <vehicle id="18" depart="73.01">
        <route edges="gneE11 e14 e2 gneE2"/>
    </vehicle>
    <vehicle id="19" depart="77.07">
        <route edges="gneE7 gneE9 e3 e12 gneE12 e10 e5 e6 gneE10 gneE8"/>
    </vehicle>
    <vehicle id="20" depart="81.13">
        <route edges="e3 e2"/>
    </vehicle>
    <vehicle id="21" depart="85.18">
        <route edges="gneE12 e10 e5 e6"/>
    </vehicle>
    <vehicle id="22" depart="89.24">
        <route edges="e14 e2 e9 gneE3 gneE5"/>
    </vehicle>
    <vehicle id="23" depart="93.29">
        <route edges="e2"/>
    </vehicle>
    <vehicle id="24" depart="97.35">
        <route edges="e14 e6 gneE10"/>
    </vehicle>
    <vehicle id="25" depart="101.41">
        <route edges="e10 e5 e6 gneE10 gneE8 e11"/>
    </vehicle>
    <vehicle id="26" depart="105.46">
        <route edges="gneE8 e11 e12 gneE12 e10 e5"/>
    </vehicle>
    <vehicle id="27" depart="109.52">
        <route edges="gneE8 e11 e12 gneE12 e10"/>
    </vehicle>
    <vehicle id="28" depart="113.58">
        <route edges="e7 e8 gneE11 e14"/>
    </vehicle>
    <vehicle id="29" depart="117.63">
        <route edges="e13 gneE7 gneE9 e3 e2 e8 gneE11 e14"/>
    </vehicle>
    <vehicle id="30" depart="121.69">
        <route edges="e13 gneE7 gneE9 e3 e2 gneE2 gneE4 gneE6 e7"/>
    </vehicle>
    <vehicle id="31" depart="125.74">
        <route edges="gneE8 e11 e12 gneE12 e10 e5 e13 gneE7 gneE9"/>
    </vehicle>
    <vehicle id="32" depart="129.80">
        <route edges="e2 e9"/>
    </vehicle>
    <vehicle id="33" depart="133.86">
        <route edges="e13 gneE7 gneE9 e3 e2 e8 gneE11"/>
    </vehicle>
    <vehicle id="34" depart="137.91">
        <route edges="gneE1 e5 e6 gneE10"/>
    </vehicle>
    <vehicle id="35" depart="141.97">
        <route edges="e2 e8 gneE11 e14 e13 gneE7 gneE9"/>
    </vehicle>
    <vehicle id="36" depart="146.03">
        <route edges="e6 gneE10 gneE8 e11 e2 e9"/>
    </vehicle>
    <vehicle id="37" depart="150.08">
        <route edges="e10 e9"/>
    </vehicle>
    <vehicle id="38" depart="154.14">
        <route edges="gneE6 e7 e5 e13 gneE7 gneE9"/>
    </vehicle>
    <vehicle id="39" depart="158.19">
        <route edges="gneE1 e5 e12 gneE12 e10 gneE2 gneE4"/>
    </vehicle>
    <vehicle id="40" depart="162.25">
        <route edges="gneE4 gneE6 e7 e5 e12 gneE12 e10 e9"/>
    </vehicle>
    <vehicle id="41" depart="166.31">
        <route edges="e3"/>
    </vehicle>
    <vehicle id="42" depart="170.36">
        <route edges="e10 e5"/>
    </vehicle>
    <vehicle id="43" depart="174.42">
        <route edges="gneE9"/>
    </vehicle>
    <vehicle id="44" depart="178.48">
        <route edges="gneE10 gneE8 e11 e12 gneE12 e10 e5 e13 gneE7 gneE9 e3"/>
    </vehicle>
    <vehicle id="45" depart="182.53">
        <route edges="gneE1 e8 gneE11 e14"/>
    </vehicle>
    <vehicle id="46" depart="186.59">
        <route edges="e2 e8 gneE11 e14 e6 gneE10 gneE8 e11"/>
    </vehicle>
    <vehicle id="47" depart="190.64">
        <route edges="e8 gneE11 e14 e2 e9 gneE3"/>
    </vehicle>
    <vehicle id="48" depart="194.70">
        <route edges="e3 e12 gneE12 e10 e5"/>
    </vehicle>
    <vehicle id="49" depart="198.76">
        <route edges="gneE3 gneE5 gneE1 e5 e12 gneE12 e10"/>
    </vehicle>
    <vehicle id="50" depart="202.81">
        <route edges="gneE3 gneE5"/>
    </vehicle>
    <vehicle id="51" depart="206.87">
        <route edges="e5"/>
    </vehicle>
    <vehicle id="52" depart="210.93">
        <route edges="e14 e13 gneE7 gneE9 e3 e12 gneE12"/>
    </vehicle>
    <vehicle id="53" depart="214.98">
        <route edges="e3 e12 gneE12 e10"/>
    </vehicle>
    <vehicle id="54" depart="219.04">
        <route edges="e6 gneE10 gneE8 e11 e2 gneE2 gneE4 gneE6"/>
    </vehicle>
    <vehicle id="55" depart="223.09">
        <route edges="e5 e12 gneE12 e10 gneE2"/>
    </vehicle>
    <vehicle id="56" depart="227.15">
        <route edges="gneE1 e5 e13 gneE7 gneE9 e3"/>
    </vehicle>
    <vehicle id="57" depart="231.21">
        <route edges="gneE7 gneE9 e3 e2 e9 gneE3 gneE5"/>
    </vehicle>
    <vehicle id="58" depart="235.26">
        <route edges="e13 gneE7 gneE9 e3 e2 gneE2 gneE4"/>
    </vehicle>
    <vehicle id="59" depart="239.32">
        <route edges="e3 e2 gneE2 gneE4 gneE6 e7"/>
    </vehicle>
    <vehicle id="60" depart="243.38">
        <route edges="gneE9 e3 e2 e8 gneE11 e14"/>
    </vehicle>
    <vehicle id="61" depart="247.43">
        <route edges="e9 gneE3 gneE5 gneE1 e5 e12 gneE12 e10 gneE2 gneE4 gneE6"/>
    </vehicle>
    <vehicle id="62" depart="251.49">
        <route edges="gneE10 gneE8 e11 e2 e8"/>
    </vehicle>
    <vehicle id="63" depart="255.55">
        <route edges="e6 gneE10 gneE8 e11 e12 gneE12 e10 e5 e13 gneE7"/>
    </vehicle>
    <vehicle id="64" depart="259.60">
        <route edges="gneE5 gneE1 e5 e12 gneE12 e10"/>
    </vehicle>
    <vehicle id="65" depart="263.66">
        <route edges="e12 gneE12 e10 e5 e6 gneE10"/>
    </vehicle>
    <vehicle id="66" depart="267.71">
        <route edges="e6"/>
    </vehicle>
    <vehicle id="67" depart="271.77">
        <route edges="e5 e6 gneE10 gneE8 e11"/>
    </vehicle>
    <vehicle id="68" depart="275.83">
        <route edges="gneE8 e11 e12 gneE12 e10 e5 e13"/>
    </vehicle>
    <vehicle id="69" depart="279.88">
        <route edges="e12 gneE12 e10 gneE2 gneE4 gneE6"/>
    </vehicle>
    <vehicle id="70" depart="283.94">
        <route edges="gneE11 e14 e2 gneE2 gneE4 gneE6"/>
    </vehicle>
    <vehicle id="71" depart="288.00">
        <route edges="e13 gneE7 gneE9 e3 e12 gneE12 e10 e5 e6"/>
    </vehicle>
    <vehicle id="72" depart="292.05">
        <route edges="gneE1 e8"/>
    </vehicle>
    <vehicle id="73" depart="296.11">
        <route edges="e10 gneE2 gneE4 gneE6 e7 e8 gneE11"/>
    </vehicle>
    <vehicle id="74" depart="300.16">
        <route edges="e14 e2 gneE2 gneE4 gneE6 e7 e5"/>
    </vehicle>
    <vehicle id="75" depart="304.22">
        <route edges="gneE4 gneE6 e7 e5 e6 gneE10"/>
    </vehicle>
    <vehicle id="76" depart="308.28">
        <route edges="e2 gneE2 gneE4 gneE6"/>
    </vehicle>
    <vehicle id="77" depart="312.33">
        <route edges="gneE7 gneE9 e3 e2"/>
    </vehicle>
    <vehicle id="78" depart="316.39">
        <route edges="e2 gneE2 gneE4 gneE6 e7 e5 e12"/>
    </vehicle>
    <vehicle id="79" depart="320.45">
        <route edges="gneE1 e5 e13 gneE7 gneE9 e3"/>
    </vehicle>
    <vehicle id="80" depart="324.50">
        <route edges="gneE3 gneE5 gneE1 e5 e6"/>
    </vehicle>
    <vehicle id="81" depart="328.56">
        <route edges="e8 gneE11 e14 e13 gneE7 gneE9"/>
    </vehicle>
    <vehicle id="82" depart="332.61">
        <route edges="gneE11 e14 e13"/>
    </vehicle>
    <vehicle id="83" depart="336.67">
        <route edges="e13 gneE7 gneE9 e3 e2 e8 gneE11"/>
    </vehicle>
    <vehicle id="84" depart="340.73">
        <route edges="gneE1 e5 e6"/>
    </vehicle>
    <vehicle id="85" depart="344.78">
        <route edges="e14 e13"/>
    </vehicle>
    <vehicle id="86" depart="348.84">
        <route edges="e2 gneE2 gneE4 gneE6 e7 e5"/>
    </vehicle>
    <vehicle id="87" depart="352.90">
        <route edges="e10 e5 e13 gneE7 gneE9"/>
    </vehicle>
    <vehicle id="88" depart="356.95">
        <route edges="e14 e13 gneE7 gneE9 e3 e12 gneE12"/>
    </vehicle>
    <vehicle id="89" depart="361.01">
        <route edges="e5 e13 gneE7 gneE9 e3 e2 e8 gneE11"/>
    </vehicle>
    <vehicle id="90" depart="365.06">
        <route edges="e5 e12 gneE12"/>
    </vehicle>
    <vehicle id="91" depart="369.12">
        <route edges="gneE6 e7 gneE2"/>
    </vehicle>
    <vehicle id="92" depart="373.18">
        <route edges="gneE7 gneE9 e3"/>
    </vehicle>
    <vehicle id="93" depart="377.23">
        <route edges="gneE6 e7 e8 gneE11"/>
    </vehicle>
    <vehicle id="94" depart="381.29">
        <route edges="gneE5 gneE1 e8 gneE11 e14"/>
    </vehicle>
    <vehicle id="95" depart="385.35">
        <route edges="e7 e5 e13 gneE7 gneE9 e3"/>
    </vehicle>
    <vehicle id="96" depart="389.40">
        <route edges="gneE12"/>
    </vehicle>
    <vehicle id="97" depart="393.46">
        <route edges="gneE12 e10 e5 e13 gneE7 gneE9 e3"/>
    </vehicle>
    <vehicle id="98" depart="397.51">
        <route edges="gneE8 e11 e2 gneE2 gneE4 gneE6 e7"/>
    </vehicle>
    <vehicle id="99" depart="401.57">
        <route edges="e3 e2 e9"/>
    </vehicle>
    <vehicle id="100" depart="405.63">
        <route edges="gneE5 gneE1 e5 e12 gneE12 e10 gneE2 gneE4"/>
    </vehicle>
    <vehicle id="101" depart="409.68">
        <route edges="gneE2 gneE4 gneE6 e7 e5 e12 gneE12 e10 e9 gneE3 gneE5 gneE1"/>
    </vehicle>
    <vehicle id="102" depart="413.74">
        <route edges="e10 e5"/>
    </vehicle>
    <vehicle id="103" depart="417.80">
        <route edges="gneE10 gneE8 e11 e2 gneE2 gneE4"/>
    </vehicle>
    <vehicle id="104" depart="421.85">
        <route edges="gneE9 e3 e2 e9 gneE3 gneE5"/>
    </vehicle>
    <vehicle id="105" depart="425.91">
        <route edges="gneE7 gneE9 e3 e12 gneE12 e10 e5 e6"/>
    </vehicle>
    <vehicle id="106" depart="429.96">
        <route edges="gneE9 e3 e12 gneE12 e10 e5 e6 gneE10 gneE8 e11"/>
    </vehicle>
    <vehicle id="107" depart="434.02">
        <route edges="gneE3 gneE5 gneE1 e5 e6"/>
    </vehicle>
    <vehicle id="108" depart="438.08">
        <route edges="e5 e12 gneE12"/>
    </vehicle>
    <vehicle id="109" depart="442.13">
        <route edges="e5 e13 gneE7 gneE9 e3 e2 e8"/>
    </vehicle>
    <vehicle id="110" depart="446.19">
        <route edges="gneE6 e7 e5 e12 gneE12"/>
    </vehicle>
    <vehicle id="111" depart="450.25">
        <route edges="gneE2 gneE4 gneE6 e7 e5 e12 gneE12"/>
    </vehicle>
    <vehicle id="112" depart="454.30">
        <route edges="gneE4 gneE6 e7 e5 e13 gneE7"/>
    </vehicle>
    <vehicle id="113" depart="458.36">
        <route edges="gneE6 e7 gneE2 gneE4"/>
    </vehicle>
    <vehicle id="114" depart="462.41">
        <route edges="gneE5 gneE1 e5 e12"/>
    </vehicle>
    <vehicle id="115" depart="466.47">
        <route edges="e2 e8 gneE11 e14 e6"/>
    </vehicle>
    <vehicle id="116" depart="470.53">
        <route edges="e2"/>
    </vehicle>
    <vehicle id="117" depart="474.58">
        <route edges="gneE11 e14 e13 gneE7 gneE9 e3 e12 gneE12"/>
    </vehicle>
    <vehicle id="118" depart="478.64">
        <route edges="gneE7 gneE9 e3 e2 gneE2"/>
    </vehicle>
    <vehicle id="119" depart="482.70">
        <route edges="gneE12 e10 gneE2 gneE4 gneE6 e7 e8 gneE11 e14"/>
    </vehicle>
    <vehicle id="120" depart="486.75">
        <route edges="gneE3 gneE5 gneE1 e5 e12 gneE12 e10 gneE2"/>
    </vehicle>
    <vehicle id="121" depart="490.81">
        <route edges="gneE6 e7 e5 e13"/>
    </vehicle>
    <vehicle id="122" depart="494.86">
        <route edges="e5 e6 gneE10 gneE8"/>
    </vehicle>
    <vehicle id="123" depart="498.92">
        <route edges="gneE2 gneE4 gneE6 e7 e5 e13 gneE7 gneE9 e3"/>
    </vehicle>
    <vehicle id="124" depart="502.98">
        <route edges="gneE3 gneE5 gneE1"/>
    </vehicle>
    <vehicle id="125" depart="507.03">
        <route edges="e10 e5 e13 gneE7 gneE9"/>
    </vehicle>
    <vehicle id="126" depart="511.09">
        <route edges="e10 e5 e13 gneE7 gneE9"/>
    </vehicle>
    <vehicle id="127" depart="515.15">
        <route edges="e14 e13 gneE7 gneE9"/>
    </vehicle>
    <vehicle id="128" depart="519.20">
        <route edges="gneE11"/>
    </vehicle>
    <vehicle id="129" depart="523.26">
        <route edges="gneE12"/>
    </vehicle>
    <vehicle id="130" depart="527.32">
        <route edges="gneE7 gneE9 e3 e12"/>
    </vehicle>
    <vehicle id="131" depart="531.37">
        <route edges="e3 e2 e9 gneE3"/>
    </vehicle>
    <vehicle id="132" depart="535.43">
        <route edges="gneE4 gneE6 e7 e5 e12 gneE12 e10 e9 gneE3 gneE5 gneE1"/>
    </vehicle>
    <vehicle id="133" depart="539.48">
        <route edges="gneE2 gneE4 gneE6 e7 e8 gneE11 e14 e2"/>
    </vehicle>
    <vehicle id="134" depart="543.54">
        <route edges="gneE11 e14 e2 e8"/>
    </vehicle>
    <vehicle id="135" depart="547.60">
        <route edges="e5 e12 gneE12 e10 e9"/>
    </vehicle>
    <vehicle id="136" depart="551.65">
        <route edges="gneE3 gneE5 gneE1 e5 e6 gneE10 gneE8"/>
    </vehicle>
    <vehicle id="137" depart="555.71">
        <route edges="gneE6 e7 e8 gneE11 e14 e2"/>
    </vehicle>
    <vehicle id="138" depart="559.77">
        <route edges="gneE6 e7 e5 e6"/>
    </vehicle>
    <vehicle id="139" depart="563.82">
        <route edges="gneE3 gneE5 gneE1 e5 e6 gneE10"/>
    </vehicle>
    <vehicle id="140" depart="567.88">
        <route edges="gneE10 gneE8 e11 e2 e8"/>
    </vehicle>
    <vehicle id="141" depart="571.93">
        <route edges="e11 e2 e9"/>
    </vehicle>
    <vehicle id="142" depart="575.99">
        <route edges="gneE12 e10 e5 e12"/>
    </vehicle>
    <vehicle id="143" depart="580.05">
        <route edges="e8 gneE11 e14 e13 gneE7 gneE9 e3"/>
    </vehicle>
    <vehicle id="144" depart="584.10">
        <route edges="gneE11 e14 e2 gneE2 gneE4 gneE6 e7"/>
    </vehicle>
    <vehicle id="145" depart="588.16">
        <route edges="e2 gneE2 gneE4"/>
    </vehicle>
    <vehicle id="146" depart="592.22">
        <route edges="gneE1 e9 gneE3 gneE5"/>
    </vehicle>
    <vehicle id="147" depart="596.27">
        <route edges="e7 e5 e12 gneE12 e10"/>
    </vehicle>
    <vehicle id="148" depart="600.33">
        <route edges="e2 e8"/>
    </vehicle>
    <vehicle id="149" depart="604.38">
        <route edges="gneE11 e14 e2 e9"/>
    </vehicle>
    <vehicle id="150" depart="608.44">
        <route edges="e5 e13 gneE7 gneE9 e3"/>
    </vehicle>
    <vehicle id="151" depart="612.50">
        <route edges="e8 gneE11 e14 e6 gneE10"/>
    </vehicle>
    <vehicle id="152" depart="616.55">
        <route edges="gneE4 gneE6 e7"/>
    </vehicle>
    <vehicle id="153" depart="620.61">
        <route edges="gneE3 gneE5 gneE1 e5 e13 gneE7 gneE9 e3"/>
    </vehicle>
    <vehicle id="154" depart="624.67">
        <route edges="e5 e12 gneE12 e10 gneE2 gneE4 gneE6 e7"/>
    </vehicle>
    <vehicle id="155" depart="628.72">
        <route edges="gneE2 gneE4 gneE6 e7 e5 e12 gneE12 e10 e9 gneE3 gneE5 gneE1"/>
    </vehicle>
    <vehicle id="156" depart="632.78">
        <route edges="e7 e8 gneE11 e14 e2"/>
    </vehicle>
    <vehicle id="157" depart="636.83">
        <route edges="e12 gneE12 e10 e5 e13 gneE7 gneE9 e3"/>
    </vehicle>
    <vehicle id="158" depart="640.89">
        <route edges="gneE6 e7 e5 e6 gneE10 gneE8"/>
    </vehicle>
    <vehicle id="159" depart="644.95">
        <route edges="e5 e12 gneE12 e10 gneE2"/>
    </vehicle>
    <vehicle id="160" depart="649.00">
        <route edges="e14 e13 gneE7 gneE9 e3 e12 gneE12"/>
    </vehicle>
    <vehicle id="161" depart="653.06">
        <route edges="gneE5 gneE1 e5 e12"/>
    </vehicle>
    <vehicle id="162" depart="657.12">
        <route edges="gneE11 e14 e2 e8"/>
    </vehicle>
    <vehicle id="163" depart="661.17">
        <route edges="gneE2 gneE4 gneE6 e7 e5 e12 gneE12 e10 e9"/>
    </vehicle>
    <vehicle id="164" depart="665.23">
        <route edges="gneE10 gneE8 e11 e2 e9 gneE3 gneE5 gneE1"/>
    </vehicle>
    <vehicle id="165" depart="669.28">
        <route edges="gneE2 gneE4 gneE6 e7 e5 e13 gneE7 gneE9"/>
    </vehicle>
    <vehicle id="166" depart="673.34">
        <route edges="gneE5 gneE1 e5 e6 gneE10 gneE8"/>
    </vehicle>
    <vehicle id="167" depart="677.40">
        <route edges="gneE10 gneE8 e11"/>
    </vehicle>
    <vehicle id="168" depart="681.45">
        <route edges="e9 gneE3 gneE5 gneE1 e5 e12 gneE12 e10 gneE2 gneE4"/>
    </vehicle>
    <vehicle id="169" depart="685.51">
        <route edges="gneE10 gneE8 e11 e12 gneE12 e10 e5 e13 gneE7 gneE9"/>
    </vehicle>
    <vehicle id="170" depart="689.57">
        <route edges="gneE11 e14 e2 gneE2 gneE4 gneE6"/>
    </vehicle>
    <vehicle id="171" depart="693.62">
        <route edges="gneE3 gneE5 gneE1 e8 gneE11 e14 e2"/>
    </vehicle>
    <vehicle id="172" depart="697.68">
        <route edges="gneE5 gneE1 e5 e12 gneE12 e10 gneE2 gneE4 gneE6"/>
    </vehicle>
    <vehicle id="173" depart="701.73">
        <route edges="e8 gneE11 e14 e13 gneE7 gneE9"/>
    </vehicle>
    <vehicle id="174" depart="705.79">
        <route edges="gneE10 gneE8 e11 e12 gneE12 e10 e5 e13 gneE7"/>
    </vehicle>
    <vehicle id="175" depart="709.85">
        <route edges="e10 e5 e13"/>
    </vehicle>
    <vehicle id="176" depart="713.90">
        <route edges="gneE12 e10 gneE2 gneE4 gneE6 e7 e8"/>
    </vehicle>
    <vehicle id="177" depart="717.96">
        <route edges="e5 e6 gneE10 gneE8"/>
    </vehicle>
    <vehicle id="178" depart="722.02">
        <route edges="gneE11 e14 e2 gneE2 gneE4 gneE6 e7 e5"/>
    </vehicle>
    <vehicle id="179" depart="726.07">
        <route edges="e5 e12 gneE12 e10 e9 gneE3"/>
    </vehicle>
    <vehicle id="180" depart="730.13">
        <route edges="gneE8 e11 e2 gneE2 gneE4"/>
    </vehicle>
    <vehicle id="181" depart="734.18">
        <route edges="gneE8 e11 e12"/>
    </vehicle>
    <vehicle id="182" depart="738.24">
        <route edges="e11 e12 gneE12 e10 e5 e13 gneE7 gneE9 e3"/>
    </vehicle>
    <vehicle id="183" depart="742.30">
        <route edges="e6 gneE10 gneE8 e11 e2 e9 gneE3 gneE5"/>
    </vehicle>
    <vehicle id="184" depart="746.35">
        <route edges="e9 gneE3 gneE5 gneE1 e5 e12 gneE12 e10 gneE2 gneE4"/>
    </vehicle>
    <vehicle id="185" depart="750.41">
        <route edges="e3 e13"/>
    </vehicle>
    <vehicle id="186" depart="754.47">
        <route edges="gneE1 e5 e13 gneE7 gneE9 e3"/>
    </vehicle>
    <vehicle id="187" depart="758.52">
        <route edges="gneE6 e7 e5 e13"/>
    </vehicle>
    <vehicle id="188" depart="762.58">
        <route edges="e12 gneE12 e10 e5 e6 gneE10 gneE8 e11"/>
    </vehicle>
    <vehicle id="189" depart="766.64">
        <route edges="gneE6 e7 e8 gneE11 e14 e2"/>
    </vehicle>
    <vehicle id="190" depart="770.69">
        <route edges="e7 e5 e12 gneE12 e10 e9 gneE3"/>
    </vehicle>
    <vehicle id="191" depart="774.75">
        <route edges="e6 gneE10 gneE8 e11 e2 e8 gneE11"/>
    </vehicle>
    <vehicle id="192" depart="778.80">
        <route edges="e14 e6 gneE10 gneE8 e11"/>
    </vehicle>
    <vehicle id="193" depart="782.86">
        <route edges="gneE2 gneE4 gneE6 e7 e8 gneE11 e14 e2"/>
    </vehicle>
    <vehicle id="194" depart="786.92">
        <route edges="gneE1 e5 e6 gneE10 gneE8"/>
    </vehicle>
    <vehicle id="195" depart="790.97">
        <route edges="gneE6 e7 e8 gneE11"/>
    </vehicle>
    <vehicle id="196" depart="795.03">
        <route edges="e10 gneE2 gneE4 gneE6 e7 e8 gneE11 e14"/>
    </vehicle>
    <vehicle id="197" depart="799.09">
        <route edges="e12 gneE12 e10 e9 gneE3 gneE5"/>
    </vehicle>
    <vehicle id="198" depart="803.14">
        <route edges="gneE12 e10 e9 gneE3 gneE5"/>
    </vehicle>
    <vehicle id="199" depart="807.20">
        <route edges="gneE10 gneE8 e11 e12 gneE12 e10 e5 e13 gneE7 gneE9"/>
    </vehicle>
    <vehicle id="200" depart="811.25">
        <route edges="gneE1 e5 e13"/>
    </vehicle>
    <vehicle id="201" depart="815.31">
        <route edges="gneE8 e11 e12 gneE12 e10 e5 e13 gneE7"/>
    </vehicle>
    <vehicle id="202" depart="819.37">
        <route edges="e3 e2 e9"/>
    </vehicle>
    <vehicle id="203" depart="823.42">
        <route edges="gneE5 gneE1 e5 e13 gneE7"/>
    </vehicle>
    <vehicle id="204" depart="827.48">
        <route edges="e11 e2 e9 gneE3 gneE5"/>
    </vehicle>
    <vehicle id="205" depart="831.54">
        <route edges="e5 e12 gneE12 e10 e9 gneE3"/>
    </vehicle>
    <vehicle id="206" depart="835.59">
        <route edges="e11 e2 e8 gneE11"/>
    </vehicle>
    <vehicle id="207" depart="839.65">
        <route edges="e8 gneE11 e14 e13 gneE7"/>
    </vehicle>
    <vehicle id="208" depart="843.70">
        <route edges="e11 e12 gneE12 e10 e5 e13 gneE7 gneE9 e3"/>
    </vehicle>
    <vehicle id="209" depart="847.76">
        <route edges="e13 gneE7 gneE9 e3 e2 e9 gneE3"/>
    </vehicle>
    <vehicle id="210" depart="851.82">
        <route edges="gneE6 e7 e5 e12 gneE12 e10 e9"/>
    </vehicle>
    <vehicle id="211" depart="855.87">
        <route edges="e5 e12 gneE12 e10 gneE2 gneE4"/>
    </vehicle>
    <vehicle id="212" depart="859.93">
        <route edges="e11 e2 e8 gneE11"/>
    </vehicle>
    <vehicle id="213" depart="863.99">
        <route edges="e5 e13 gneE7 gneE9 e3 e2 e8 gneE11 e14"/>
    </vehicle>
    <vehicle id="214" depart="868.04">
        <route edges="e2 e8 gneE11 e14 e6"/>
    </vehicle>
    <vehicle id="215" depart="872.10">
        <route edges="e9 gneE3 gneE5 gneE1 e5 e13"/>
    </vehicle>
    <vehicle id="216" depart="876.15">
        <route edges="gneE5 gneE1 e5 e6 gneE10"/>
    </vehicle>
    <vehicle id="217" depart="880.21">
        <route edges="gneE10 gneE8 e11 e2 e8"/>
    </vehicle>
    <vehicle id="218" depart="884.27">
        <route edges="gneE10 gneE8 e11 e2 e9 gneE3 gneE5"/>
    </vehicle>
    <vehicle id="219" depart="888.32">
        <route edges="gneE8 e11 e2 gneE2"/>
    </vehicle>
    <vehicle id="220" depart="892.38">
        <route edges="e10 e5 e13 gneE7"/>
    </vehicle>
    <vehicle id="221" depart="896.44">
        <route edges="e6 gneE10 gneE8 e11 e2"/>
    </vehicle>
    <vehicle id="222" depart="900.49">
        <route edges="e2 e8"/>
    </vehicle>
    <vehicle id="223" depart="904.55">
        <route edges="e7 e5 e12 gneE12"/>
    </vehicle>
    <vehicle id="224" depart="908.60">
        <route edges="gneE8 e11 e2 e8 gneE11 e14"/>
    </vehicle>
    <vehicle id="225" depart="912.66">
        <route edges="e3 e12 gneE12"/>
    </vehicle>
    <vehicle id="226" depart="916.72">
        <route edges="gneE6 e7 e5 e6 gneE10"/>
    </vehicle>
    <vehicle id="227" depart="920.77">
        <route edges="e10 e5 e13"/>
    </vehicle>
    <vehicle id="228" depart="924.83">
        <route edges="e14 e2 e9 gneE3"/>
    </vehicle>
    <vehicle id="229" depart="928.89">
        <route edges="e6 gneE10 gneE8 e11 e2 gneE2 gneE4"/>
    </vehicle>
    <vehicle id="230" depart="932.94">
        <route edges="gneE7 gneE9 e3 e2"/>
    </vehicle>
    <vehicle id="231" depart="937.00">
        <route edges="e5 e12 gneE12 e10 e9"/>
    </vehicle>
    <vehicle id="232" depart="941.05">
        <route edges="e11 e2 gneE2 gneE4 gneE6"/>
    </vehicle>
    <vehicle id="233" depart="945.11">
        <route edges="e7 gneE2"/>
    </vehicle>
    <vehicle id="234" depart="949.17">
        <route edges="gneE1 e5 e12 gneE12 e10 gneE2"/>
    </vehicle>
    <vehicle id="235" depart="953.22">
        <route edges="gneE3 gneE5"/>
    </vehicle>
    <vehicle id="236" depart="957.28">
        <route edges="e3 e13 gneE7 gneE9"/>
    </vehicle>
    <vehicle id="237" depart="961.34">
        <route edges="e13 gneE7 gneE9 e3 e2 e8 gneE11"/>
    </vehicle>
    <vehicle id="238" depart="965.39">
        <route edges="gneE6 e7 gneE2 gneE4"/>
    </vehicle>
    <vehicle id="239" depart="969.45">
        <route edges="e12 gneE12 e10 gneE2 gneE4 gneE6 e7 e8 gneE11 e14"/>
    </vehicle>
    <vehicle id="240" depart="973.50">
        <route edges="e14"/>
    </vehicle>
    <vehicle id="241" depart="977.56">
        <route edges="e14 e13 gneE7 gneE9 e3 e12 gneE12"/>
    </vehicle>
    <vehicle id="242" depart="981.62">
        <route edges="gneE12 e10 gneE2 gneE4 gneE6 e7 e8 gneE11 e14"/>
    </vehicle>
    <vehicle id="243" depart="985.67">
        <route edges="e5 e12 gneE12 e10 gneE2"/>
    </vehicle>
    <vehicle id="244" depart="989.73">
        <route edges="e14 e2 gneE2 gneE4"/>
    </vehicle>
    <vehicle id="245" depart="993.79">
        <route edges="e12 gneE12 e10 gneE2 gneE4 gneE6 e7 e8"/>
    </vehicle>
    <vehicle id="246" depart="997.84">
        <route edges="gneE12 e10 e9 gneE3"/>
    </vehicle>
    <vehicle id="247" depart="1001.90">
        <route edges="gneE4"/>
    </vehicle>
    <vehicle id="248" depart="1005.95">
        <route edges="gneE1 e5 e6 gneE10 gneE8"/>
    </vehicle>
    <vehicle id="249" depart="1010.01">
        <route edges="gneE6 e7 e8 gneE11"/>
    </vehicle>
    <vehicle id="250" depart="1014.07">
        <route edges="gneE7 gneE9 e3 e12 gneE12 e10 e5 e6"/>
    </vehicle>
    <vehicle id="251" depart="1018.12">
        <route edges="gneE9 e3"/>
    </vehicle>
    <vehicle id="252" depart="1022.18">
        <route edges="gneE12 e10 gneE2 gneE4"/>
    </vehicle>
    <vehicle id="253" depart="1026.24">
        <route edges="gneE5 gneE1 e8 gneE11 e14 e2"/>
    </vehicle>
    <vehicle id="254" depart="1030.29">
        <route edges="gneE5 gneE1 e5 e12 gneE12 e10 gneE2"/>
    </vehicle>
    <vehicle id="255" depart="1034.35">
        <route edges="e7 gneE2 gneE4 gneE6"/>
    </vehicle>
    <vehicle id="256" depart="1038.41">
        <route edges="gneE11 e14 e2 gneE2"/>
    </vehicle>
    <vehicle id="257" depart="1042.46">
        <route edges="e6 gneE10 gneE8 e11 e2"/>
    </vehicle>
    <vehicle id="258" depart="1046.52">
        <route edges="gneE11 e14 e13 gneE7 gneE9 e3 e12 gneE12 e10"/>
    </vehicle>
    <vehicle id="259" depart="1050.57">
        <route edges="gneE6 e7 e5 e13 gneE7 gneE9"/>
    </vehicle>
    <vehicle id="260" depart="1054.63">
        <route edges="e2 e8 gneE11"/>
    </vehicle>
    <vehicle id="261" depart="1058.69">
        <route edges="gneE1 e5 e6 gneE10"/>
    </vehicle>
    <vehicle id="262" depart="1062.74">
        <route edges="gneE7 gneE9 e3 e2 e8 gneE11"/>
    </vehicle>
    <vehicle id="263" depart="1066.80">
        <route edges="gneE4 gneE6 e7 e5 e12 gneE12 e10"/>
    </vehicle>
    <vehicle id="264" depart="1070.86">
        <route edges="gneE8 e11 e6 gneE10"/>
    </vehicle>
    <vehicle id="265" depart="1074.91">
        <route edges="e7 e5 e13 gneE7 gneE9"/>
    </vehicle>
    <vehicle id="266" depart="1078.97">
        <route edges="gneE2 gneE4 gneE6 e7 e5 e12 gneE12 e10 e9"/>
    </vehicle>
    <vehicle id="267" depart="1083.02">
        <route edges="gneE11 e14 e6 gneE10 gneE8"/>
    </vehicle>
    <vehicle id="268" depart="1087.08">
        <route edges="e2 e9 gneE3 gneE5"/>
    </vehicle>
    <vehicle id="269" depart="1091.14">
        <route edges="gneE12"/>
    </vehicle>
    <vehicle id="270" depart="1095.19">
        <route edges="gneE10 gneE8 e11"/>
    </vehicle>
    <vehicle id="271" depart="1099.25">
        <route edges="gneE3 gneE5 gneE1 e5 e13 gneE7"/>
    </vehicle>
    <vehicle id="272" depart="1103.31">
        <route edges="e13 gneE7 gneE9 e3 e12"/>
    </vehicle>
    <vehicle id="273" depart="1107.36">
        <route edges="e9 gneE3 gneE5"/>
    </vehicle>
    <vehicle id="274" depart="1111.42">
        <route edges="e6 gneE10 gneE8 e11 e2 e8"/>
    </vehicle>
    <vehicle id="275" depart="1115.47">
        <route edges="e6 gneE10 gneE8 e11 e12 gneE12 e10 e5"/>
    </vehicle>
    <vehicle id="276" depart="1119.53">
        <route edges="e13 gneE7 gneE9 e3 e2 e9 gneE3 gneE5 gneE1"/>
    </vehicle>