<?xml version="1.0" encoding="UTF-8"?>
<!-- generated on 2020-12-29 14:50:13.729326 by $Id$ UNKNOWN
  options: 
-->
<routes xmlns:xsi="http://www.w3.org/2001/XMLSchema-instance" xsi:noNamespaceSchemaLocation="http://sumo.dlr.de/xsd/routes_file.xsd">
    <trip id="0" depart="0.00" from="gneE10" to="e3"/>
    <trip id="1" depart="3.24" from="gneE4" to="gneE1"/>
    <trip id="2" depart="6.47" from="gneE10" to="e10"/>
    <trip id="3" depart="9.71" from="e12" to="e11"/>
    <trip id="4" depart="12.94" from="gneE11" to="e5"/>
    <trip id="5" depart="16.18" from="e7" to="gneE5"/>
    <trip id="6" depart="19.41" from="e10" to="e5"/>
    <trip id="7" depart="22.65" from="e7" to="gneE8"/>
    <trip id="8" depart="25.88" from="e10" to="gneE12"/>
    <trip id="9" depart="29.12" from="gneE9" to="gneE7"/>
    <trip id="10" depart="32.36" from="e5" to="e3"/>
    <trip id="11" depart="35.59" from="e11" to="gneE10"/>
    <trip id="12" depart="38.83" from="e6" to="e9"/>
    <trip id="13" depart="42.06" from="gneE7" to="gneE8"/>
    <trip id="14" depart="45.30" from="e12" to="e3"/>
    <trip id="15" depart="48.53" from="e9" to="e11"/>
    <trip id="16" depart="51.77" from="gneE7" to="e14"/>
    <trip id="17" depart="55.00" from="gneE12" to="e2"/>
    <trip id="18" depart="58.24" from="e13" to="e5"/>
    <trip id="19" depart="61.48" from="gneE7" to="e12"/>
    <trip id="20" depart="64.71" from="gneE12" to="e9"/>
    <trip id="21" depart="67.95" from="gneE10" to="e9"/>
    <trip id="22" depart="71.18" from="e11" to="gneE2"/>
    <trip id="23" depart="74.42" from="gneE8" to="e11"/>
    <trip id="24" depart="77.65" from="e3" to="gneE9"/>
    <trip id="25" depart="80.89" from="e10" to="gneE4"/>
    <trip id="26" depart="84.12" from="gneE7" to="e8"/>
    <trip id="27" depart="87.36" from="e13" to="e7"/>
    <trip id="28" depart="90.60" from="e14" to="gneE5"/>
    <trip id="29" depart="93.83" from="e9" to="gneE6"/>
    <trip id="30" depart="97.07" from="e2" to="e10"/>
    <trip id="31" depart="100.30" from="e6" to="e13"/>
    <trip id="32" depart="103.54" from="gneE6" to="gneE12"/>
    <trip id="33" depart="106.77" from="gneE11" to="e3"/>
    <trip id="34" depart="110.01" from="gneE6" to="e12"/>
    <trip id="35" depart="113.24" from="gneE8" to="gneE10"/>
    <trip id="36" depart="116.48" from="e11" to="gneE10"/>
    <trip id="37" depart="119.72" from="e12" to="gneE2"/>
    <trip id="38" depart="122.95" from="e6" to="gneE3"/>
    <trip id="39" depart="126.19" from="gneE10" to="e9"/>
    <trip id="40" depart="129.42" from="e12" to="e3"/>
    <trip id="41" depart="132.66" from="gneE8" to="e8"/>
    <trip id="42" depart="135.89" from="gneE2" to="e6"/>
    <trip id="43" depart="139.13" from="e5" to="e11"/>
    <trip id="44" depart="142.36" from="e5" to="e11"/>
    <trip id="45" depart="145.60" from="gneE2" to="e12"/>
    <trip id="46" depart="148.84" from="e9" to="e14"/>
    <trip id="47" depart="152.07" from="gneE10" to="e2"/>
    <trip id="48" depart="155.31" from="gneE1" to="e9"/>
    <trip id="49" depart="158.54" from="e9" to="gneE1"/>
    <trip id="50" depart="161.78" from="e6" to="gneE5"/>
    <trip id="51" depart="165.01" from="gneE8" to="e9"/>
    <trip id="52" depart="168.25" from="e13" to="gneE3"/>
    <trip id="53" depart="171.48" from="e12" to="gneE5"/>
    <trip id="54" depart="174.72" from="e12" to="gneE2"/>
    <trip id="55" depart="177.96" from="gneE6" to="gneE12"/>
    <trip id="56" depart="181.19" from="gneE2" to="gneE1"/>
    <trip id="57" depart="184.43" from="e13" to="gneE9"/>
    <trip id="58" depart="187.66" from="e11" to="e6"/>
    <trip id="59" depart="190.90" from="gneE12" to="e3"/>
    <trip id="60" depart="194.13" from="e9" to="e13"/>
    <trip id="61" depart="197.37" from="e3" to="gneE6"/>
    <trip id="62" depart="200.60" from="e2" to="e2"/>
    <trip id="63" depart="203.84" from="e12" to="gneE10"/>
    <trip id="64" depart="207.08" from="e6" to="gneE3"/>
    <trip id="65" depart="210.31" from="gneE10" to="gneE8"/>
    <trip id="66" depart="213.55" from="gneE12" to="e8"/>
    <trip id="67" depart="216.78" from="gneE1" to="gneE12"/>
    <trip id="68" depart="220.02" from="gneE7" to="gneE7"/>
    <trip id="69" depart="223.25" from="gneE10" to="gneE3"/>
    <trip id="70" depart="226.49" from="gneE10" to="gneE5"/>
    <trip id="71" depart="229.72" from="e8" to="e7"/>
    <trip id="72" depart="232.96" from="e8" to="gneE6"/>
    <trip id="73" depart="236.20" from="gneE1" to="e7"/>
    <trip id="74" depart="239.43" from="e2" to="e3"/>
    <trip id="75" depart="242.67" from="gneE6" to="e2"/>
    <trip id="76" depart="245.90" from="gneE5" to="e12"/>
    <trip id="77" depart="249.14" from="gneE11" to="gneE8"/>
    <trip id="78" depart="252.37" from="e11" to="gneE12"/>
    <trip id="79" depart="255.61" from="gneE2" to="e13"/>
    <trip id="80" depart="258.84" from="gneE10" to="e8"/>
    <trip id="81" depart="262.08" from="e13" to="gneE10"/>
    <trip id="82" depart="265.32" from="e2" to="e5"/>
    <trip id="83" depart="268.55" from="e2" to="gneE7"/>
    <trip id="84" depart="271.79" from="e6" to="e5"/>
    <trip id="85" depart="275.02" from="gneE8" to="e13"/>
    <trip id="86" depart="278.26" from="e2" to="gneE2"/>
    <trip id="87" depart="281.49" from="e6" to="gneE4"/>
    <trip id="88" depart="284.73" from="e10" to="e6"/>
    <trip id="89" depart="287.96" from="gneE5" to="gneE2"/>
    <trip id="90" depart="291.20" from="gneE3" to="e13"/>
    <trip id="91" depart="294.44" from="gneE7" to="e3"/>
    <trip id="92" depart="297.67" from="gneE5" to="e7"/>
    <trip id="93" depart="300.91" from="gneE2" to="gneE10"/>
    <trip id="94" depart="304.14" from="gneE2" to="gneE10"/>
    <trip id="95" depart="307.38" from="e13" to="gneE3"/>
    <trip id="96" depart="310.61" from="e11" to="e8"/>
    <trip id="97" depart="313.85" from="e12" to="e10"/>
    <trip id="98" depart="317.08" from="e9" to="e10"/>
    <trip id="99" depart="320.32" from="gneE7" to="e13"/>
    <trip id="100" depart="323.56" from="e2" to="e12"/>
    <trip id="101" depart="326.79" from="e7" to="gneE9"/>
    <trip id="102" depart="330.03" from="gneE12" to="gneE10"/>
    <trip id="103" depart="333.26" from="gneE11" to="gneE5"/>
    <trip id="104" depart="336.50" from="e6" to="e9"/>
    <trip id="105" depart="339.73" from="e3" to="e5"/>
    <trip id="106" depart="342.97" from="e2" to="gneE5"/>
    <trip id="107" depart="346.20" from="e11" to="e13"/>
    <trip id="108" depart="349.44" from="e8" to="gneE12"/>
    <trip id="109" depart="352.68" from="gneE12" to="gneE12"/>
    <trip id="110" depart="355.91" from="e10" to="e12"/>
    <trip id="111" depart="359.15" from="gneE2" to="e7"/>
    <trip id="112" depart="362.38" from="gneE8" to="gneE10"/>
    <trip id="113" depart="365.62" from="gneE3" to="gneE6"/>
    <trip id="114" depart="368.85" from="gneE12" to="e10"/>
    <trip id="115" depart="372.09" from="gneE12" to="e14"/>
    <trip id="116" depart="375.32" from="gneE8" to="gneE2"/>
    <trip id="117" depart="378.56" from="e6" to="e10"/>
    <trip id="118" depart="381.79" from="e5" to="gneE4"/>
    <trip id="119" depart="385.03" from="gneE11" to="gneE7"/>
    <trip id="120" depart="388.27" from="gneE5" to="e13"/>
    <trip id="121" depart="391.50" from="e5" to="e9"/>
    <trip id="122" depart="394.74" from="gneE6" to="e13"/>
    <trip id="123" depart="397.97" from="gneE8" to="e2"/>
    <trip id="124" depart="401.21" from="e14" to="e12"/>
    <trip id="125" depart="404.44" from="gneE11" to="e3"/>
    <trip id="126" depart="407.68" from="gneE2" to="e12"/>
    <trip id="127" depart="410.91" from="gneE1" to="gneE12"/>
    <trip id="128" depart="414.15" from="e11" to="gneE8"/>
    <trip id="129" depart="417.39" from="e9" to="e2"/>
    <trip id="130" depart="420.62" from="e13" to="gneE11"/>
    <trip id="131" depart="423.86" from="e9" to="gneE10"/>
    <trip id="132" depart="427.09" from="e12" to="gneE4"/>
    <trip id="133" depart="430.33" from="e13" to="gneE11"/>
    <trip id="134" depart="433.56" from="gneE2" to="e5"/>
    <trip id="135" depart="436.80" from="gneE8" to="e10"/>
    <trip id="136" depart="440.03" from="gneE8" to="e8"/>
    <trip id="137" depart="443.27" from="gneE2" to="gneE1"/>
    <trip id="138" depart="446.51" from="e3" to="e9"/>
    <trip id="139" depart="449.74" from="e8" to="gneE2"/>
    <trip id="140" depart="452.98" from="e8" to="e2"/>
    <trip id="141" depart="456.21" from="e13" to="e13"/>
    <trip id="142" depart="459.45" from="e2" to="gneE9"/>
    <trip id="143" depart="462.68" from="e7" to="e13"/>
    <trip id="144" depart="465.92" from="e12" to="e7"/>
    <trip id="145" depart="469.15" from="gneE5" to="gneE9"/>
    <trip id="146" depart="472.39" from="gneE11" to="gneE6"/>
    <trip id="147" depart="475.63" from="gneE4" to="gneE6"/>
    <trip id="148" depart="478.86" from="gneE6" to="gneE2"/>
    <trip id="149" depart="482.10" from="e11" to="e6"/>
    <trip id="150" depart="485.33" from="e5" to="gneE1"/>
    <trip id="151" depart="488.57" from="gneE4" to="e5"/>
    <trip id="152" depart="491.80" from="gneE11" to="e12"/>
    <trip id="153" depart="495.04" from="e3" to="gneE8"/>
    <trip id="154" depart="498.27" from="gneE4" to="gneE7"/>
    <trip id="155" depart="501.51" from="gneE4" to="e3"/>
    <trip id="156" depart="504.75" from="gneE4" to="e6"/>
    <trip id="157" depart="507.98" from="e5" to="gneE5"/>
    <trip id="158" depart="511.22" from="gneE7" to="gneE11"/>
    <trip id="159" depart="514.45" from="gneE7" to="gneE3"/>
    <trip id="160" depart="517.69" from="gneE6" to="gneE12"/>
    <trip id="161" depart="520.92" from="gneE6" to="gneE6"/>
    <trip id="162" depart="524.16" from="e6" to="e7"/>
    <trip id="163" depart="527.39" from="e14" to="gneE10"/>
    <trip id="164" depart="530.63" from="e8" to="e12"/>
    <trip id="165" depart="533.87" from="e10" to="gneE9"/>
    <trip id="166" depart="537.10" from="gneE7" to="e14"/>
    <trip id="167" depart="540.34" from="gneE7" to="gneE10"/>
    <trip id="168" depart="543.57" from="gneE9" to="e9"/>
    <trip id="169" depart="546.81" from="gneE9" to="e14"/>
    <trip id="170" depart="550.04" from="e9" to="e13"/>
    <trip id="171" depart="553.28" from="e8" to="gneE2"/>
    <trip id="172" depart="556.51" from="gneE7" to="e11"/>
    <trip id="173" depart="559.75" from="e9" to="e10"/>
    <trip id="174" depart="562.99" from="e11" to="e14"/>
    <trip id="175" depart="566.22" from="e9" to="e11"/>
    <trip id="176" depart="569.46" from="gneE6" to="e7"/>
    <trip id="177" depart="572.69" from="e7" to="gneE5"/>
    <trip id="178" depart="575.93" from="e5" to="gneE8"/>
    <trip id="179" depart="579.16" from="gneE10" to="gneE5"/>
    <trip id="180" depart="582.40" from="gneE1" to="gneE11"/>
    <trip id="181" depart="585.63" from="e13" to="gneE8"/>
    <trip id="182" depart="588.87" from="e14" to="e6"/>
    <trip id="183" depart="592.11" from="gneE11" to="e10"/>
    <trip id="184" depart="595.34" from="e3" to="e3"/>
    <trip id="185" depart="598.58" from="e14" to="e10"/>
    <trip id="186" depart="601.81" from="gneE5" to="gneE2"/>
    <trip id="187" depart="605.05" from="e10" to="gneE2"/>
    <trip id="188" depart="608.28" from="e2" to="e9"/>
    <trip id="189" depart="611.52" from="e2" to="gneE11"/>
    <trip id="190" depart="614.75" from="e5" to="e10"/>
    <trip id="191" depart="617.99" from="e12" to="e7"/>
    <trip id="192" depart="621.23" from="e2" to="e11"/>
    <trip id="193" depart="624.46" from="e8" to="e11"/>
    <trip id="194" depart="627.70" from="gneE2" to="e2"/>
    <trip id="195" depart="630.93" from="gneE7" to="e3"/>
    <trip id="196" depart="634.17" from="e7" to="e3"/>
    <trip id="197" depart="637.40" from="e9" to="gneE9"/>
    <trip id="198" depart="640.64" from="e2" to="e3"/>
    <trip id="199" depart="643.87" from="gneE10" to="e8"/>
    <trip id="200" depart="647.11" from="gneE4" to="gneE5"/>
    <trip id="201" depart="650.35" from="gneE4" to="gneE8"/>
    <trip id="202" depart="653.58" from="e7" to="e9"/>
    <trip id="203" depart="656.82" from="gneE1" to="e5"/>
    <trip id="204" depart="660.05" from="gneE8" to="e9"/>
    <trip id="205" depart="663.29" from="gneE4" to="gneE7"/>
    <trip id="206" depart="666.52" from="e13" to="gneE3"/>
    <trip id="207" depart="669.76" from="e6" to="e12"/>
    <trip id="208" depart="672.99" from="e2" to="gneE2"/>
    <trip id="209" depart="676.23" from="e14" to="e14"/>
    <trip id="210" depart="679.47" from="e10" to="e11"/>
    <trip id="211" depart="682.70" from="e13" to="e13"/>
    <trip id="212" depart="685.94" from="e9" to="gneE12"/>
    <trip id="213" depart="689.17" from="gneE5" to="e8"/>
    <trip id="214" depart="692.41" from="e2" to="e5"/>
    <trip id="215" depart="695.64" from="e13" to="gneE2"/>
    <trip id="216" depart="698.88" from="gneE8" to="gneE10"/>
    <trip id="217" depart="702.11" from="e13" to="gneE7"/>
    <trip id="218" depart="705.35" from="gneE3" to="e2"/>
    <trip id="219" depart="708.59" from="gneE12" to="e6"/>
    <trip id="220" depart="711.82" from="e12" to="e7"/>
    <trip id="221" depart="715.06" from="gneE1" to="e7"/>
    <trip id="222" depart="718.29" from="gneE11" to="gneE3"/>
    <trip id="223" depart="721.53" from="gneE1" to="e9"/>
    <trip id="224" depart="724.76" from="e12" to="gneE4"/>
    <trip id="225" depart="728.00" from="e11" to="e11"/>
    <trip id="226" depart="731.23" from="gneE10" to="e6"/>
    <trip id="227" depart="734.47" from="e13" to="gneE4"/>
    <trip id="228" depart="737.71" from="e14" to="gneE5"/>
    <trip id="229" depart="740.94" from="e10" to="e2"/>
    <trip id="230" depart="744.18" from="e11" to="gneE7"/>
    <trip id="231" depart="747.41" from="gneE4" to="gneE4"/>
    <trip id="232" depart="750.65" from="e13" to="gneE2"/>
    <trip id="233" depart="753.88" from="gneE12" to="gneE8"/>
    <trip id="234" depart="757.12" from="e2" to="e13"/>
    <trip id="235" depart="760.35" from="e13" to="e5"/>
    <trip id="236" depart="763.59" from="gneE3" to="e10"/>
    <trip id="237" depart="766.83" from="gneE7" to="e9"/>
    <trip id="238" depart="770.06" from="e3" to="gneE10"/>
    <trip id="239" depart="773.30" from="e13" to="e6"/>
    <trip id="240" depart="776.53" from="gneE1" to="gneE7"/>
    <trip id="241" depart="779.77" from="e3" to="gneE11"/>
    <trip id="242" depart="783.00" from="gneE6" to="e12"/>
    <trip id="243" depart="786.24" from="e11" to="e2"/>
    <trip id="244" depart="789.47" from="e7" to="gneE8"/>
    <trip id="245" depart="792.71" from="e5" to="gneE2"/>
    <trip id="246" depart="795.95" from="e6" to="gneE5"/>
    <trip id="247" depart="799.18" from="e11" to="gneE4"/>
    <trip id="248" depart="802.42" from="gneE6" to="gneE3"/>
    <trip id="249" depart="805.65" from="gneE6" to="e3"/>
    <trip id="250" depart="808.89" from="e6" to="e13"/>
    <trip id="251" depart="812.12" from="gneE3" to="e5"/>
    <trip id="252" depart="815.36" from="gneE5" to="gneE2"/>
    <trip id="253" depart="818.59" from="e7" to="gneE11"/>
    <trip id="254" depart="821.83" from="e7" to="e14"/>
    <trip id="255" depart="825.07" from="e2" to="e12"/>
    <trip id="256" depart="828.30" from="gneE11" to="gneE7"/>
    <trip id="257" depart="831.54" from="e2" to="e6"/>
    <trip id="258" depart="834.77" from="gneE6" to="gneE8"/>
    <trip id="259" depart="838.01" from="gneE2" to="gneE12"/>
    <trip id="260" depart="841.24" from="e7" to="gneE12"/>
    <trip id="261" depart="844.48" from="gneE10" to="e9"/>
    <trip id="262" depart="847.71" from="e8" to="e7"/>
    <trip id="263" depart="850.95" from="e9" to="e7"/>
    <trip id="264" depart="854.19" from="gneE11" to="gneE9"/>
    <trip id="265" depart="857.42" from="e7" to="e13"/>
    <trip id="266" depart="860.66" from="e11" to="e7"/>
    <trip id="267" depart="863.89" from="e13" to="e12"/>
    <trip id="268" depart="867.13" from="gneE9" to="gneE3"/>
    <trip id="269" depart="870.36" from="e7" to="e14"/>
    <trip id="270" depart="873.60" from="e8" to="gneE3"/>
    <trip id="271" depart="876.83" from="gneE4" to="e14"/>
    <trip id="272" depart="880.07" from="gneE2" to="gneE5"/>
    <trip id="273" depart="883.31" from="e13" to="gneE2"/>
    <trip id="274" depart="886.54" from="gneE1" to="gneE1"/>
    <trip id="275" depart="889.78" from="e8" to="gneE9"/>
    <trip id="276" depart="893.01" from="e11" to="gneE1"/>
    <trip id="277" depart="896.25" from="e8" to="gneE4"/>
    <trip id="278" depart="899.48" from="e8" to="e2"/>
    <trip id="279" depart="902.72" from="gneE11" to="e9"/>
    <trip id="280" depart="905.95" from="gneE9" to="gneE8"/>
    <trip id="281" depart="909.19" from="e5" to="gneE11"/>
    <trip id="282" depart="912.43" from="gneE11" to="e7"/>
    <trip id="283" depart="915.66" from="e12" to="gneE7"/>
    <trip id="284" depart="918.90" from="e6" to="gneE10"/>
    <trip id="285" depart="922.13" from="e7" to="e9"/>
    <trip id="286" depart="925.37" from="gneE8" to="gneE1"/>
    <trip id="287" depart="928.60" from="gneE10" to="gneE12"/>
    <trip id="288" depart="931.84" from="e11" to="gneE1"/>
    <trip id="289" depart="935.07" from="gneE9" to="e14"/>
    <trip id="290" depart="938.31" from="e7" to="e5"/>
    <trip id="291" depart="941.55" from="gneE8" to="gneE3"/>
    <trip id="292" depart="944.78" from="gneE12" to="gneE3"/>
    <trip id="293" depart="948.02" from="gneE5" to="e3"/>
    <trip id="294" depart="951.25" from="gneE1" to="gneE7"/>
    <trip id="295" depart="954.49" from="e11" to="e2"/>
    <trip id="296" depart="957.72" from="gneE3" to="e11"/>
    <trip id="297" depart="960.96" from="gneE6" to="gneE2"/>
    <trip id="298" depart="964.19" from="e10" to="gneE11"/>
    <trip id="299" depart="967.43" from="e9" to="e2"/>
    <trip id="300" depart="970.67" from="gneE12" to="gneE7"/>
    <trip id="301" depart="973.90" from="gneE8" to="e14"/>
    <trip id="302" depart="977.14" from="gneE3" to="e13"/>
    <trip id="303" depart="980.37" from="e12" to="e6"/>
    <trip id="304" depart="983.61" from="gneE4" to="e7"/>
    <trip id="305" depart="986.84" from="e2" to="e12"/>
    <trip id="306" depart="990.08" from="e6" to="e11"/>
    <trip id="307" depart="993.31" from="gneE6" to="gneE2"/>
    <trip id="308" depart="996.55" from="e10" to="e13"/>
    <trip id="309" depart="999.79" from="e7" to="gneE5"/>
    <trip id="310" depart="1003.02" from="e12" to="gneE12"/>
    <trip id="311" depart="1006.26" from="e5" to="gneE12"/>
    <trip id="312" depart="1009.49" from="gneE11" to="gneE12"/>
    <trip id="313" depart="1012.73" from="e14" to="gneE7"/>
    <trip id="314" depart="1015.96" from="gneE5" to="e14"/>
    <trip id="315" depart="1019.20" from="gneE6" to="e10"/>
    <trip id="316" depart="1022.43" from="gneE2" to="gneE1"/>
    <trip id="317" depart="1025.67" from="gneE9" to="gneE11"/>
    <trip id="318" depart="1028.91" from="gneE3" to="gneE11"/>
    <trip id="319" depart="1032.14" from="gneE12" to="gneE4"/>
    <trip id="320" depart="1035.38" from="e11" to="gneE8"/>
    <trip id="321" depart="1038.61" from="e10" to="gneE8"/>
    <trip id="322" depart="1041.85" from="gneE12" to="e9"/>
    <trip id="323" depart="1045.08" from="e7" to="e5"/>
    <trip id="324" depart="1048.32" from="e10" to="gneE11"/>
    <trip id="325" depart="1051.55" from="e10" to="e12"/>
    <trip id="326" depart="1054.79" from="gneE8" to="gneE9"/>
    <trip id="327" depart="1058.03" from="gneE7" to="gneE9"/>
    <trip id="328" depart="1061.26" from="e14" to="gneE1"/>
    <trip id="329" depart="1064.50" from="e6" to="e5"/>
    <trip id="330" depart="1067.73" from="gneE2" to="gneE5"/>
    <trip id="331" depart="1070.97" from="gneE1" to="e14"/>
    <trip id="332" depart="1074.20" from="gneE2" to="gneE2"/>
    <trip id="333" depart="1077.44" from="gneE1" to="e6"/>
    <trip id="334" depart="1080.67" from="gneE11" to="gneE3"/>
    <trip id="335" depart="1083.91" from="e8" to="gneE12"/>
    <trip id="336" depart="1087.15" from="e5" to="e13"/>
    <trip id="337" depart="1090.38" from="e9" to="gneE7"/>
    <trip id="338" depart="1093.62" from="e6" to="gneE7"/>
    <trip id="339" depart="1096.85" from="gneE12" to="gneE6"/>
    <trip id="340" depart="1100.09" from="gneE2" to="gneE2"/>
    <trip id="341" depart="1103.32" from="e10" to="e7"/>
    <trip id="342" depart="1106.56" from="gneE3" to="e11"/>
    <trip id="343" depart="1109.79" from="e7" to="gneE5"/>
    <trip id="344" depart="1113.03" from="gneE8" to="e3"/>
    <trip id="345" depart="1116.26" from="gneE1" to="gneE12"/>
    <trip id="346" depart="1119.50" from="gneE9" to="gneE7"/>
    <trip id="347" depart="1122.74" from="e13" to="e6"/>
    <trip id="348" depart="1125.97" from="e2" to="e2"/>
    <trip id="349" depart="1129.21" from="gneE11" to="gneE9"/>
    <trip id="350" depart="1132.44" from="e11" to="gneE7"/>
    <trip id="351" depart="1135.68" from="gneE4" to="e12"/>
    <trip id="352" depart="1138.91" from="e5" to="e9"/>
    <trip id="353" depart="1142.15" from="gneE1" to="gneE9"/>
    <trip id="354" depart="1145.38" from="e6" to="e10"/>
    <trip id="355" depart="1148.62" from="gneE6" to="gneE10"/>
    <trip id="356" depart="1151.86" from="e3" to="gneE7"/>
    <trip id="357" depart="1155.09" from="e6" to="e12"/>
    <trip id="358" depart="1158.33" from="gneE11" to="gneE1"/>
    <trip id="359" depart="1161.56" from="gneE1" to="e6"/>
    <trip id="360" depart="1164.80" from="gneE12" to="gneE11"/>
    <trip id="361" depart="1168.03" from="e9" to="gneE7"/>
    <trip id="362" depart="1171.27" from="gneE11" to="e10"/>
    <trip id="363" depart="1174.50" from="e3" to="gneE5"/>
    <trip id="364" depart="1177.74" from="gneE9" to="gneE7"/>
    <trip id="365" depart="1180.98" from="gneE7" to="e14"/>
    <trip id="366" depart="1184.21" from="e9" to="gneE9"/>
    <trip id="367" depart="1187.45" from="gneE1" to="e8"/>
    <trip id="368" depart="1190.68" from="gneE4" to="e8"/>
    <trip id="369" depart="1193.92" from="gneE4" to="gneE12"/>
    <trip id="370" depart="1197.15" from="e6" to="gneE4"/>
    <trip id="371" depart="1200.39" from="e10" to="gneE10"/>
    <trip id="372" depart="1203.62" from="e14" to="gneE2"/>
    <trip id="373" depart="1206.86" from="gneE10" to="gneE6"/>
    <trip id="374" depart="1210.10" from="e7" to="e9"/>
    <trip id="375" depart="1213.33" from="gneE3" to="e2"/>
    <trip id="376" depart="1216.57" from="gneE5" to="gneE4"/>
    <trip id="377" depart="1219.80" from="e7" to="e14"/>
    <trip id="378" depart="1223.04" from="e14" to="e14"/>
    <trip id="379" depart="1226.27" from="gneE5" to="gneE4"/>
    <trip id="380" depart="1229.51" from="e13" to="gneE11"/>
    <trip id="381" depart="1232.74" from="e5" to="e9"/>
    <trip id="382" depart="1235.98" from="gneE10" to="e12"/>
    <trip id="383" depart="1239.22" from="e9" to="gneE1"/>
    <trip id="384" depart="1242.45" from="e3" to="gneE8"/>
    <trip id="385" depart="1245.69" from="gneE7" to="gneE1"/>
    <trip id="386" depart="1248.92" from="e9" to="e5"/>
    <trip id="387" depart="1252.16" from="e2" to="e14"/>
    <trip id="388" depart="1255.39" from="e3" to="gneE6"/>
    <trip id="389" depart="1258.63" from="gneE6" to="e11"/>
    <trip id="390" depart="1261.86" from="gneE2" to="gneE4"/>
    <trip id="391" depart="1265.10" from="e8" to="gneE3"/>
    <trip id="392" depart="1268.34" from="gneE5" to="gneE8"/>
    <trip id="393" depart="1271.57" from="e8" to="e6"/>
    <trip id="394" depart="1274.81" from="e11" to="e13"/>
    <trip id="395" depart="1278.04" from="gneE7" to="e3"/>
    <trip id="396" depart="1281.28" from="e8" to="e2"/>
    <trip id="397" depart="1284.51" from="gneE2" to="e6"/>
    <trip id="398" depart="1287.75" from="gneE6" to="e10"/>
    <trip id="399" depart="1290.98" from="e13" to="gneE12"/>
    <trip id="400" depart="1294.22" from="gneE8" to="gneE8"/>
    <trip id="401" depart="1297.46" from="gneE12" to="e8"/>
    <trip id="402" depart="1300.69" from="gneE4" to="gneE5"/>
    <trip id="403" depart="1303.93" from="gneE1" to="e2"/>
    <trip id="404" depart="1307.16" from="e9" to="gneE7"/>
    <trip id="405" depart="1310.40" from="gneE11" to="gneE3"/>
    <trip id="406" depart="1313.63" from="e7" to="e12"/>
    <trip id="407" depart="1316.87" from="e9" to="e11"/>
    <trip id="408" depart="1320.10" from="gneE8" to="e8"/>
    <trip id="409" depart="1323.34" from="e8" to="gneE1"/>
    <trip id="410" depart="1326.58" from="e14" to="e2"/>
    <trip id="411" depart="1329.81" from="gneE11" to="e9"/>
    <trip id="412" depart="1333.05" from="e12" to="e2"/>
    <trip id="413" depart="1336.28" from="gneE2" to="gneE2"/>
    <trip id="414" depart="1339.52" from="gneE2" to="e6"/>
    <trip id="415" depart="1342.75" from="gneE7" to="e7"/>
    <trip id="416" depart="1345.99" from="gneE4" to="e11"/>
    <trip id="417" depart="1349.22" from="e13" to="gneE1"/>
    <trip id="418" depart="1352.46" from="e12" to="gneE5"/>
    <trip id="419" depart="1355.70" from="gneE11" to="gneE7"/>
    <trip id="420" depart="1358.93" from="gneE4" to="e11"/>
    <trip id="421" depart="1362.17" from="gneE4" to="e8"/>
    <trip id="422" depart="1365.40" from="e14" to="gneE10"/>
    <trip id="423" depart="1368.64" from="gneE3" to="e5"/>
    <trip id="424" depart="1371.87" from="gneE2" to="e2"/>
    <trip id="425" depart="1375.11" from="gneE12" to="e10"/>
    <trip id="426" depart="1378.34" from="gneE1" to="gneE3"/>
    <trip id="427" depart="1381.58" from="e3" to="e11"/>
    <trip id="428" depart="1384.82" from="gneE3" to="e14"/>
    <trip id="429" depart="1388.05" from="e2" to="gneE1"/>
    <trip id="430" depart="1391.29" from="e12" to="e2"/>
    <trip id="431" depart="1394.52" from="e8" to="e8"/>
    <trip id="432" depart="1397.76" from="e14" to="gneE6"/>
    <trip id="433" depart="1400.99" from="gneE8" to="e2"/>
    <trip id="434" depart="1404.23" from="gneE7" to="gneE5"/>
    <trip id="435" depart="1407.46" from="e8" to="e10"/>
    <trip id="436" depart="1410.70" from="gneE11" to="gneE8"/>
    <trip id="437" depart="1413.94" from="e6" to="gneE8"/>
    <trip id="438" depart="1417.17" from="e11" to="e11"/>
    <trip id="439" depart="1420.41" from="e13" to="gneE10"/>
    <trip id="440" depart="1423.64" from="e6" to="e9"/>
    <trip id="441" depart="1426.88" from="e8" to="e3"/>
    <trip id="442" depart="1430.11" from="e10" to="e8"/>
    <trip id="443" depart="1433.35" from="e11" to="gneE4"/>
    <trip id="444" depart="1436.58" from="gneE11" to="e9"/>
    <trip id="445" depart="1439.82" from="gneE1" to="gneE5"/>
    <trip id="446" depart="1443.06" from="e9" to="e13"/>
    <trip id="447" depart="1446.29" from="e9" to="gneE9"/>
    <trip id="448" depart="1449.53" from="e9" to="e3"/>
    <trip id="449" depart="1452.76" from="gneE2" to="gneE5"/>
    <trip id="450" depart="1456.00" from="gneE5" to="e5"/>
    <trip id="451" depart="1459.23" from="gneE7" to="e10"/>
    <trip id="452" depart="1462.47" from="gneE7" to="gneE3"/>
    <trip id="453" depart="1465.70" from="gneE12" to="e13"/>
    <trip id="454" depart="1468.94" from="e3" to="e7"/>
    <trip id="455" depart="1472.18" from="e10" to="e13"/>
    <trip id="456" depart="1475.41" from="gneE12" to="gneE5"/>
    <trip id="457" depart="1478.65" from="gneE9" to="e2"/>
    <trip id="458" depart="1481.88" from="e8" to="gneE5"/>
    <trip id="459" depart="1485.12" from="e9" to="e9"/>
    <trip id="460" depart="1488.35" from="gneE10" to="gneE6"/>
    <trip id="461" depart="1491.59" from="gneE10" to="gneE7"/>
    <trip id="462" depart="1494.82" from="gneE4" to="gneE3"/>
    <trip id="463" depart="1498.06" from="gneE8" to="e6"/>
    <trip id="464" depart="1501.30" from="e14" to="gneE12"/>
    <trip id="465" depart="1504.53" from="gneE1" to="gneE1"/>
    <trip id="466" depart="1507.77" from="gneE9" to="e8"/>
    <trip id="467" depart="1511.00" from="e12" to="e7"/>
    <trip id="468" depart="1514.24" from="e3" to="gneE8"/>
    <trip id="469" depart="1517.47" from="gneE4" to="gneE10"/>
    <trip id="470" depart="1520.71" from="e9" to="e3"/>
    <trip id="471" depart="1523.94" from="gneE3" to="gneE4"/>
    <trip id="472" depart="1527.18" from="e3" to="e8"/>
    <trip id="473" depart="1530.42" from="e6" to="e7"/>
    <trip id="474" depart="1533.65" from="gneE2" to="e10"/>
    <trip id="475" depart="1536.89" from="gneE8" to="e13"/>
    <trip id="476" depart="1540.12" from="e6" to="gneE1"/>
    <trip id="477" depart="1543.36" from="e10" to="gneE2"/>
    <trip id="478" depart="1546.59" from="e12" to="e9"/>
    <trip id="479" depart="1549.83" from="gneE8" to="e13"/>
    <trip id="480" depart="1553.06" from="e9" to="gneE12"/>
    <trip id="481" depart="1556.30" from="gneE7" to="gneE11"/>
    <trip id="482" depart="1559.54" from="e2" to="e7"/>
    <trip id="483" depart="1562.77" from="e8" to="e11"/>
    <trip id="484" depart="1566.01" from="e8" to="e13"/>
    <trip id="485" depart="1569.24" from="gneE5" to="gneE1"/>
    <trip id="486" depart="1572.48" from="gneE10" to="e14"/>
    <trip id="487" depart="1575.71" from="gneE10" to="e2"/>
    <trip id="488" depart="1578.95" from="gneE11" to="e8"/>
    <trip id="489" depart="1582.18" from="e5" to="gneE12"/>
    <trip id="490" depart="1585.42" from="e14" to="gneE10"/>
    <trip id="491" depart="1588.66" from="e13" to="gneE3"/>
    <trip id="492" depart="1591.89" from="e12" to="gneE2"/>
    <trip id="493" depart="1595.13" from="e3" to="gneE5"/>
    <trip id="494" depart="1598.36" from="e10" to="gneE6"/>
    <trip id="495" depart="1601.60" from="e11" to="gneE12"/>
    <trip id="496" depart="1604.83" from="e9" to="e11"/>
    <trip id="497" depart="1608.07" from="gneE8" to="e2"/>
    <trip id="498" depart="1611.30" from="gneE1" to="gneE3"/>
    <trip id="499" depart="1614.54" from="gneE3" to="e3"/>
    <trip id="500" depart="1617.78" from="gneE9" to="e13"/>
    <trip id="501" depart="1621.01" from="e14" to="e2"/>
    <trip id="502" depart="1624.25" from="gneE7" to="e5"/>
    <trip id="503" depart="1627.48" from="gneE6" to="e6"/>
    <trip id="504" depart="1630.72" from="gneE5" to="gneE8"/>
    <trip id="505" depart="1633.95" from="gneE12" to="gneE4"/>
    <trip id="506" depart="1637.19" from="gneE6" to="e11"/>