<?xml version="1.0" encoding="UTF-8"?>
<!-- generated on 2020-12-18 01:16:27.243097 by $Id$ UNKNOWN
  options: 
-->
<routes xmlns:xsi="http://www.w3.org/2001/XMLSchema-instance" xsi:noNamespaceSchemaLocation="http://sumo.dlr.de/xsd/routes_file.xsd">
    <trip id="0" depart="0.00" from="gneE4" to="gneE11"/>
    <trip id="1" depart="0.75" from="e14" to="e8"/>
    <trip id="2" depart="1.50" from="gneE9" to="gneE9"/>
    <trip id="3" depart="2.26" from="gneE5" to="e3"/>
    <trip id="4" depart="3.01" from="gneE10" to="gneE1"/>
    <trip id="5" depart="3.76" from="gneE9" to="gneE6"/>
    <trip id="6" depart="4.51" from="e7" to="gneE5"/>
    <trip id="7" depart="5.26" from="e10" to="gneE5"/>
    <trip id="8" depart="6.02" from="e2" to="e11"/>
    <trip id="9" depart="6.77" from="gneE8" to="gneE2"/>
    <trip id="10" depart="7.52" from="e10" to="e6"/>
    <trip id="11" depart="8.27" from="e12" to="e10"/>
    <trip id="12" depart="9.02" from="e10" to="gneE1"/>
    <trip id="13" depart="9.77" from="gneE8" to="gneE6"/>
    <trip id="14" depart="10.53" from="e7" to="e14"/>
    <trip id="15" depart="11.28" from="e6" to="gneE4"/>
    <trip id="16" depart="12.03" from="gneE1" to="e14"/>
    <trip id="17" depart="12.78" from="gneE9" to="e3"/>
    <trip id="18" depart="13.53" from="gneE3" to="e11"/>
    <trip id="19" depart="14.29" from="e5" to="gneE8"/>
    <trip id="20" depart="15.04" from="e6" to="e12"/>
    <trip id="21" depart="15.79" from="gneE7" to="e9"/>
    <trip id="22" depart="16.54" from="gneE7" to="gneE1"/>
    <trip id="23" depart="17.29" from="e13" to="e2"/>
    <trip id="24" depart="18.05" from="gneE1" to="e7"/>
    <trip id="25" depart="18.80" from="gneE2" to="gneE7"/>
    <trip id="26" depart="19.55" from="gneE10" to="e3"/>
    <trip id="27" depart="20.30" from="e7" to="e6"/>
    <trip id="28" depart="21.05" from="e6" to="e10"/>
    <trip id="29" depart="21.80" from="e7" to="e5"/>
    <trip id="30" depart="22.56" from="e7" to="e8"/>
    <trip id="31" depart="23.31" from="e14" to="e2"/>
    <trip id="32" depart="24.06" from="gneE2" to="gneE6"/>
    <trip id="33" depart="24.81" from="e13" to="e13"/>
    <trip id="34" depart="25.56" from="gneE8" to="e14"/>
    <trip id="35" depart="26.32" from="e3" to="gneE4"/>
    <trip id="36" depart="27.07" from="e10" to="gneE3"/>
    <trip id="37" depart="27.82" from="e12" to="gneE4"/>
    <trip id="38" depart="28.57" from="gneE10" to="gneE10"/>
    <trip id="39" depart="29.32" from="gneE11" to="gneE10"/>
    <trip id="40" depart="30.08" from="e11" to="e14"/>
    <trip id="41" depart="30.83" from="gneE1" to="e8"/>
    <trip id="42" depart="31.58" from="e11" to="e3"/>
    <trip id="43" depart="32.33" from="e10" to="gneE9"/>
    <trip id="44" depart="33.08" from="e9" to="gneE7"/>
    <trip id="45" depart="33.83" from="gneE6" to="e3"/>
    <trip id="46" depart="34.59" from="e12" to="e12"/>
    <trip id="47" depart="35.34" from="e12" to="gneE8"/>
    <trip id="48" depart="36.09" from="e7" to="e11"/>
    <trip id="49" depart="36.84" from="e13" to="e2"/>
    <trip id="50" depart="37.59" from="e3" to="gneE10"/>
    <trip id="51" depart="38.35" from="e10" to="gneE6"/>
    <trip id="52" depart="39.10" from="e11" to="e5"/>
    <trip id="53" depart="39.85" from="gneE10" to="gneE2"/>
    <trip id="54" depart="40.60" from="e3" to="gneE3"/>
    <trip id="55" depart="41.35" from="e13" to="gneE5"/>
    <trip id="56" depart="42.11" from="gneE7" to="gneE7"/>
    <trip id="57" depart="42.86" from="e12" to="gneE8"/>
    <trip id="58" depart="43.61" from="gneE10" to="gneE1"/>
    <trip id="59" depart="44.36" from="e9" to="gneE9"/>
    <trip id="60" depart="45.11" from="e7" to="e7"/>
    <trip id="61" depart="45.86" from="e14" to="gneE6"/>
    <trip id="62" depart="46.62" from="e13" to="e10"/>
    <trip id="63" depart="47.37" from="e7" to="gneE2"/>
    <trip id="64" depart="48.12" from="e10" to="e10"/>
    <trip id="65" depart="48.87" from="gneE1" to="gneE1"/>
    <trip id="66" depart="49.62" from="e3" to="gneE9"/>
    <trip id="67" depart="50.38" from="gneE3" to="gneE1"/>
    <trip id="68" depart="51.13" from="e14" to="gneE2"/>
    <trip id="69" depart="51.88" from="e9" to="e10"/>
    <trip id="70" depart="52.63" from="gneE10" to="e6"/>
    <trip id="71" depart="53.38" from="gneE6" to="e8"/>
    <trip id="72" depart="54.14" from="gneE2" to="gneE12"/>
    <trip id="73" depart="54.89" from="e5" to="gneE2"/>
    <trip id="74" depart="55.64" from="e12" to="gneE1"/>
    <trip id="75" depart="56.39" from="e5" to="gneE9"/>
    <trip id="76" depart="57.14" from="gneE12" to="gneE4"/>
    <trip id="77" depart="57.89" from="gneE6" to="e8"/>
    <trip id="78" depart="58.65" from="e14" to="gneE11"/>
    <trip id="79" depart="59.40" from="e3" to="gneE12"/>
    <trip id="80" depart="60.15" from="gneE12" to="e2"/>
    <trip id="81" depart="60.90" from="gneE12" to="gneE3"/>
    <trip id="82" depart="61.65" from="e3" to="gneE9"/>
    <trip id="83" depart="62.41" from="gneE3" to="e5"/>
    <trip id="84" depart="63.16" from="gneE3" to="gneE4"/>
    <trip id="85" depart="63.91" from="gneE12" to="e12"/>
    <trip id="86" depart="64.66" from="e11" to="e8"/>
    <trip id="87" depart="65.41" from="e5" to="e9"/>
    <trip id="88" depart="66.17" from="gneE11" to="gneE11"/>
    <trip id="89" depart="66.92" from="e5" to="gneE11"/>
    <trip id="90" depart="67.67" from="gneE5" to="e12"/>
    <trip id="91" depart="68.42" from="gneE8" to="e7"/>
    <trip id="92" depart="69.17" from="e3" to="gneE4"/>
    <trip id="93" depart="69.92" from="gneE7" to="gneE2"/>
    <trip id="94" depart="70.68" from="gneE4" to="e13"/>
    <trip id="95" depart="71.43" from="e13" to="e9"/>
    <trip id="96" depart="72.18" from="e8" to="gneE5"/>
    <trip id="97" depart="72.93" from="e5" to="gneE6"/>
    <trip id="98" depart="73.68" from="e7" to="gneE11"/>
    <trip id="99" depart="74.44" from="gneE2" to="gneE5"/>
    <trip id="100" depart="75.19" from="e11" to="gneE1"/>
    <trip id="101" depart="75.94" from="e5" to="e11"/>
    <trip id="102" depart="76.69" from="gneE2" to="e8"/>
    <trip id="103" depart="77.44" from="e8" to="gneE12"/>
    <trip id="104" depart="78.20" from="e12" to="gneE2"/>
    <trip id="105" depart="78.95" from="gneE12" to="gneE10"/>
    <trip id="106" depart="79.70" from="e3" to="gneE7"/>
    <trip id="107" depart="80.45" from="e14" to="e3"/>
    <trip id="108" depart="81.20" from="gneE3" to="gneE9"/>
    <trip id="109" depart="81.95" from="gneE4" to="e13"/>
    <trip id="110" depart="82.71" from="gneE4" to="gneE3"/>
    <trip id="111" depart="83.46" from="e10" to="e6"/>
    <trip id="112" depart="84.21" from="gneE7" to="e7"/>
    <trip id="113" depart="84.96" from="gneE10" to="e2"/>
    <trip id="114" depart="85.71" from="gneE7" to="gneE8"/>
    <trip id="115" depart="86.47" from="e8" to="gneE1"/>
    <trip id="116" depart="87.22" from="e5" to="e11"/>
    <trip id="117" depart="87.97" from="gneE2" to="e8"/>
    <trip id="118" depart="88.72" from="e3" to="gneE7"/>
    <trip id="119" depart="89.47" from="e7" to="gneE2"/>
    <trip id="120" depart="90.23" from="e2" to="e10"/>
    <trip id="121" depart="90.98" from="gneE10" to="e2"/>
    <trip id="122" depart="91.73" from="gneE5" to="gneE11"/>
    <trip id="123" depart="92.48" from="gneE1" to="e2"/>
    <trip id="124" depart="93.23" from="e5" to="gneE6"/>
    <trip id="125" depart="93.98" from="gneE8" to="e10"/>
    <trip id="126" depart="94.74" from="gneE3" to="e8"/>
    <trip id="127" depart="95.49" from="e7" to="e6"/>
    <trip id="128" depart="96.24" from="e3" to="e7"/>
    <trip id="129" depart="96.99" from="gneE4" to="e3"/>
    <trip id="130" depart="97.74" from="e12" to="e10"/>
    <trip id="131" depart="98.50" from="gneE7" to="e13"/>
    <trip id="132" depart="99.25" from="gneE12" to="e6"/>
    <trip id="133" depart="100.00" from="gneE4" to="gneE1"/>
    <trip id="134" depart="100.75" from="e7" to="e13"/>
    <trip id="135" depart="101.50" from="e14" to="gneE7"/>
    <trip id="136" depart="102.26" from="gneE1" to="e14"/>
    <trip id="137" depart="103.01" from="gneE12" to="e13"/>
    <trip id="138" depart="103.76" from="gneE8" to="e13"/>
    <trip id="139" depart="104.51" from="e2" to="gneE9"/>
    <trip id="140" depart="105.26" from="e12" to="gneE6"/>
    <trip id="141" depart="106.02" from="e7" to="gneE8"/>
    <trip id="142" depart="106.77" from="e2" to="gneE11"/>
    <trip id="143" depart="107.52" from="gneE7" to="e7"/>
    <trip id="144" depart="108.27" from="e8" to="gneE2"/>
    <trip id="145" depart="109.02" from="e9" to="e2"/>
    <trip id="146" depart="109.77" from="e7" to="gneE9"/>
    <trip id="147" depart="110.53" from="gneE6" to="gneE3"/>
    <trip id="148" depart="111.28" from="e10" to="e8"/>
    <trip id="149" depart="112.03" from="gneE11" to="gneE6"/>
    <trip id="150" depart="112.78" from="e2" to="e3"/>
    <trip id="151" depart="113.53" from="gneE5" to="e3"/>
    <trip id="152" depart="114.29" from="e6" to="e5"/>
    <trip id="153" depart="115.04" from="e14" to="e2"/>
    <trip id="154" depart="115.79" from="gneE5" to="gneE3"/>
    <trip id="155" depart="116.54" from="gneE4" to="e3"/>
    <trip id="156" depart="117.29" from="gneE11" to="e11"/>
    <trip id="157" depart="118.05" from="gneE1" to="e12"/>
    <trip id="158" depart="118.80" from="e12" to="gneE9"/>
    <trip id="159" depart="119.55" from="e8" to="e2"/>
    <trip id="160" depart="120.30" from="gneE11" to="e11"/>
    <trip id="161" depart="121.05" from="gneE3" to="e3"/>
    <trip id="162" depart="121.80" from="e5" to="e10"/>
    <trip id="163" depart="122.56" from="gneE8" to="e9"/>
    <trip id="164" depart="123.31" from="gneE1" to="gneE11"/>
    <trip id="165" depart="124.06" from="e2" to="e11"/>
    <trip id="166" depart="124.81" from="e11" to="e12"/>
    <trip id="167" depart="125.56" from="e6" to="gneE12"/>
    <trip id="168" depart="126.32" from="gneE2" to="e12"/>
    <trip id="169" depart="127.07" from="gneE9" to="e14"/>
    <trip id="170" depart="127.82" from="e10" to="e7"/>
    <trip id="171" depart="128.57" from="e3" to="gneE4"/>
    <trip id="172" depart="129.32" from="e11" to="gneE10"/>
    <trip id="173" depart="130.08" from="e12" to="e5"/>
    <trip id="174" depart="130.83" from="e13" to="gneE8"/>
    <trip id="175" depart="131.58" from="gneE8" to="e7"/>
    <trip id="176" depart="132.33" from="e2" to="gneE9"/>
    <trip id="177" depart="133.08" from="gneE3" to="e13"/>
    <trip id="178" depart="133.83" from="gneE5" to="e9"/>
    <trip id="179" depart="134.59" from="e7" to="gneE7"/>
    <trip id="180" depart="135.34" from="gneE7" to="e7"/>
    <trip id="181" depart="136.09" from="gneE4" to="e10"/>
    <trip id="182" depart="136.84" from="gneE6" to="e10"/>
    <trip id="183" depart="137.59" from="gneE10" to="gneE8"/>
    <trip id="184" depart="138.35" from="e12" to="e12"/>
    <trip id="185" depart="139.10" from="e14" to="gneE7"/>
    <trip id="186" depart="139.85" from="gneE9" to="e14"/>
    <trip id="187" depart="140.60" from="gneE4" to="gneE9"/>
    <trip id="188" depart="141.35" from="gneE12" to="gneE10"/>
    <trip id="189" depart="142.11" from="e9" to="e13"/>
    <trip id="190" depart="142.86" from="gneE1" to="e10"/>
    <trip id="191" depart="143.61" from="e13" to="gneE10"/>
    <trip id="192" depart="144.36" from="gneE8" to="e13"/>
    <trip id="193" depart="145.11" from="e11" to="e5"/>
    <trip id="194" depart="145.86" from="e6" to="gneE11"/>
    <trip id="195" depart="146.62" from="gneE1" to="gneE1"/>
    <trip id="196" depart="147.37" from="gneE3" to="e6"/>
    <trip id="197" depart="148.12" from="gneE1" to="e9"/>
    <trip id="198" depart="148.87" from="gneE10" to="gneE5"/>
    <trip id="199" depart="149.62" from="e5" to="e3"/>
    <trip id="200" depart="150.38" from="e2" to="e13"/>
    <trip id="201" depart="151.13" from="e12" to="e12"/>
    <trip id="202" depart="151.88" from="e3" to="e3"/>
    <trip id="203" depart="152.63" from="e2" to="e7"/>
    <trip id="204" depart="153.38" from="e14" to="gneE6"/>
    <trip id="205" depart="154.14" from="gneE5" to="e6"/>
    <trip id="206" depart="154.89" from="e8" to="e8"/>
    <trip id="207" depart="155.64" from="e2" to="e5"/>
    <trip id="208" depart="156.39" from="gneE6" to="gneE6"/>
    <trip id="209" depart="157.14" from="e14" to="e10"/>
    <trip id="210" depart="157.89" from="e6" to="e10"/>
    <trip id="211" depart="158.65" from="e9" to="gneE10"/>
    <trip id="212" depart="159.40" from="e8" to="gneE5"/>
    <trip id="213" depart="160.15" from="e13" to="gneE2"/>
    <trip id="214" depart="160.90" from="gneE11" to="e11"/>
    <trip id="215" depart="161.65" from="e2" to="gneE10"/>
    <trip id="216" depart="162.41" from="e13" to="gneE12"/>
    <trip id="217" depart="163.16" from="gneE7" to="gneE10"/>
    <trip id="218" depart="163.91" from="e6" to="e11"/>
    <trip id="219" depart="164.66" from="e5" to="e6"/>
    <trip id="220" depart="165.41" from="gneE11" to="gneE9"/>
    <trip id="221" depart="166.17" from="e11" to="gneE3"/>
    <trip id="222" depart="166.92" from="gneE9" to="gneE2"/>
    <trip id="223" depart="167.67" from="gneE1" to="e13"/>
    <trip id="224" depart="168.42" from="gneE5" to="e8"/>
    <trip id="225" depart="169.17" from="gneE9" to="gneE1"/>
    <trip id="226" depart="169.92" from="gneE9" to="gneE2"/>
    <trip id="227" depart="170.68" from="gneE8" to="e6"/>
    <trip id="228" depart="171.43" from="e3" to="gneE2"/>
    <trip id="229" depart="172.18" from="gneE9" to="gneE6"/>
    <trip id="230" depart="172.93" from="e9" to="gneE7"/>
    <trip id="231" depart="173.68" from="gneE9" to="gneE5"/>
    <trip id="232" depart="174.44" from="gneE3" to="e14"/>
    <trip id="233" depart="175.19" from="e10" to="gneE5"/>
    <trip id="234" depart="175.94" from="e2" to="gneE5"/>
    <trip id="235" depart="176.69" from="gneE8" to="e5"/>
    <trip id="236" depart="177.44" from="gneE8" to="e2"/>
    <trip id="237" depart="178.20" from="gneE11" to="gneE12"/>
    <trip id="238" depart="178.95" from="gneE1" to="e2"/>
    <trip id="239" depart="179.70" from="e13" to="e5"/>
    <trip id="240" depart="180.45" from="gneE3" to="gneE12"/>
    <trip id="241" depart="181.20" from="gneE6" to="e9"/>
    <trip id="242" depart="181.95" from="gneE1" to="gneE8"/>
    <trip id="243" depart="182.71" from="e8" to="gneE9"/>
    <trip id="244" depart="183.46" from="e10" to="e6"/>
    <trip id="245" depart="184.21" from="gneE3" to="gneE8"/>
    <trip id="246" depart="184.96" from="gneE5" to="gneE12"/>
    <trip id="247" depart="185.71" from="e6" to="e13"/>
    <trip id="248" depart="186.47" from="gneE1" to="e5"/>
    <trip id="249" depart="187.22" from="e11" to="e14"/>
    <trip id="250" depart="187.97" from="e13" to="gneE4"/>
    <trip id="251" depart="188.72" from="gneE6" to="e8"/>
    <trip id="252" depart="189.47" from="gneE2" to="e5"/>
    <trip id="253" depart="190.23" from="e13" to="e9"/>
    <trip id="254" depart="190.98" from="e10" to="gneE11"/>
    <trip id="255" depart="191.73" from="gneE9" to="gneE12"/>
    <trip id="256" depart="192.48" from="gneE6" to="gneE11"/>
    <trip id="257" depart="193.23" from="gneE9" to="e7"/>
    <trip id="258" depart="193.98" from="gneE9" to="e9"/>
    <trip id="259" depart="194.74" from="e13" to="e13"/>
    <trip id="260" depart="195.49" from="gneE5" to="gneE2"/>
    <trip id="261" depart="196.24" from="gneE10" to="e6"/>
    <trip id="262" depart="196.99" from="gneE4" to="e7"/>
    <trip id="263" depart="197.74" from="gneE5" to="gneE3"/>
    <trip id="264" depart="198.50" from="e9" to="e12"/>
    <trip id="265" depart="199.25" from="e13" to="e12"/>
    <trip id="266" depart="200.00" from="e8" to="gneE3"/>
    <trip id="267" depart="200.75" from="e11" to="gneE8"/>
    <trip id="268" depart="201.50" from="e14" to="gneE9"/>
    <trip id="269" depart="202.26" from="gneE5" to="gneE10"/>
    <trip id="270" depart="203.01" from="e11" to="gneE4"/>
    <trip id="271" depart="203.76" from="e5" to="e12"/>
    <trip id="272" depart="204.51" from="e6" to="gneE1"/>
    <trip id="273" depart="205.26" from="gneE4" to="gneE11"/>
    <trip id="274" depart="206.02" from="gneE10" to="e3"/>
    <trip id="275" depart="206.77" from="gneE3" to="gneE3"/>
    <trip id="276" depart="207.52" from="e8" to="gneE2"/>
    <trip id="277" depart="208.27" from="e7" to="e14"/>
    <trip id="278" depart="209.02" from="e7" to="e11"/>
    <trip id="279" depart="209.77" from="e9" to="e7"/>
    <trip id="280" depart="210.53" from="e7" to="gneE4"/>
    <trip id="281" depart="211.28" from="gneE8" to="e9"/>
    <trip id="282" depart="212.03" from="e3" to="e10"/>
    <trip id="283" depart="212.78" from="e6" to="e5"/>
    <trip id="284" depart="213.53" from="gneE9" to="e14"/>
    <trip id="285" depart="214.29" from="e9" to="e13"/>
    <trip id="286" depart="215.04" from="gneE2" to="e2"/>
    <trip id="287" depart="215.79" from="gneE7" to="e3"/>
    <trip id="288" depart="216.54" from="gneE9" to="e11"/>
    <trip id="289" depart="217.29" from="e2" to="e7"/>
    <trip id="290" depart="218.05" from="gneE6" to="e11"/>
    <trip id="291" depart="218.80" from="e13" to="e12"/>
    <trip id="292" depart="219.55" from="e5" to="e14"/>
    <trip id="293" depart="220.30" from="gneE1" to="e14"/>
    <trip id="294" depart="221.05" from="gneE7" to="gneE2"/>
    <trip id="295" depart="221.80" from="e11" to="e13"/>
    <trip id="296" depart="222.56" from="gneE11" to="e14"/>
    <trip id="297" depart="223.31" from="gneE4" to="e3"/>
    <trip id="298" depart="224.06" from="e9" to="gneE5"/>
    <trip id="299" depart="224.81" from="gneE6" to="gneE6"/>
    <trip id="300" depart="225.56" from="gneE8" to="e12"/>
    <trip id="301" depart="226.32" from="e7" to="gneE1"/>
    <trip id="302" depart="227.07" from="gneE10" to="gneE12"/>
    <trip id="303" depart="227.82" from="e14" to="e13"/>
    <trip id="304" depart="228.57" from="e7" to="e9"/>
    <trip id="305" depart="229.32" from="e12" to="e6"/>
    <trip id="306" depart="230.08" from="e7" to="e6"/>
    <trip id="307" depart="230.83" from="gneE8" to="gneE11"/>
    <trip id="308" depart="231.58" from="e8" to="gneE9"/>
    <trip id="309" depart="232.33" from="e11" to="e5"/>
    <trip id="310" depart="233.08" from="gneE1" to="gneE9"/>
    <trip id="311" depart="233.83" from="e5" to="e2"/>
    <trip id="312" depart="234.59" from="e7" to="e5"/>
    <trip id="313" depart="235.34" from="e6" to="gneE11"/>
    <trip id="314" depart="236.09" from="gneE11" to="gneE5"/>
    <trip id="315" depart="236.84" from="gneE6" to="e2"/>
    <trip id="316" depart="237.59" from="gneE6" to="gneE8"/>
    <trip id="317" depart="238.35" from="e10" to="e11"/>
    <trip id="318" depart="239.10" from="e9" to="gneE3"/>
    <trip id="319" depart="239.85" from="e7" to="gneE8"/>
    <trip id="320" depart="240.60" from="e9" to="gneE7"/>
    <trip id="321" depart="241.35" from="gneE10" to="gneE6"/>
    <trip id="322" depart="242.11" from="gneE4" to="e3"/>
    <trip id="323" depart="242.86" from="gneE12" to="gneE9"/>
    <trip id="324" depart="243.61" from="gneE11" to="gneE9"/>
    <trip id="325" depart="244.36" from="e6" to="e9"/>
    <trip id="326" depart="245.11" from="gneE1" to="gneE10"/>
    <trip id="327" depart="245.86" from="e13" to="gneE2"/>
    <trip id="328" depart="246.62" from="e5" to="gneE12"/>
    <trip id="329" depart="247.37" from="e8" to="gneE11"/>
    <trip id="330" depart="248.12" from="e5" to="gneE8"/>
    <trip id="331" depart="248.87" from="gneE9" to="gneE10"/>
    <trip id="332" depart="249.62" from="gneE12" to="gneE5"/>
    <trip id="333" depart="250.38" from="gneE9" to="gneE2"/>
    <trip id="334" depart="251.13" from="gneE9" to="e2"/>
    <trip id="335" depart="251.88" from="gneE10" to="e8"/>
    <trip id="336" depart="252.63" from="e12" to="gneE4"/>
    <trip id="337" depart="253.38" from="e7" to="gneE2"/>
    <trip id="338" depart="254.14" from="gneE8" to="e7"/>
    <trip id="339" depart="254.89" from="e7" to="e13"/>
    <trip id="340" depart="255.64" from="gneE2" to="e5"/>
    <trip id="341" depart="256.39" from="gneE9" to="gneE4"/>
    <trip id="342" depart="257.14" from="gneE9" to="gneE10"/>
    <trip id="343" depart="257.89" from="e2" to="e14"/>
    <trip id="344" depart="258.65" from="e11" to="e3"/>
    <trip id="345" depart="259.40" from="gneE11" to="gneE4"/>
    <trip id="346" depart="260.15" from="gneE11" to="gneE10"/>
    <trip id="347" depart="260.90" from="e10" to="gneE7"/>
    <trip id="348" depart="261.65" from="e14" to="e9"/>
    <trip id="349" depart="262.41" from="gneE7" to="gneE12"/>
    <trip id="350" depart="263.16" from="e11" to="gneE3"/>
    <trip id="351" depart="263.91" from="gneE2" to="e9"/>
    <trip id="352" depart="264.66" from="gneE4" to="e10"/>
    <trip id="353" depart="265.41" from="e13" to="gneE10"/>
    <trip id="354" depart="266.17" from="gneE2" to="gneE8"/>
    <trip id="355" depart="266.92" from="gneE8" to="e13"/>
    <trip id="356" depart="267.67" from="gneE12" to="gneE2"/>
    <trip id="357" depart="268.42" from="gneE6" to="e5"/>
    <trip id="358" depart="269.17" from="gneE9" to="e3"/>
    <trip id="359" depart="269.92" from="e9" to="gneE2"/>
    <trip id="360" depart="270.68" from="e8" to="e5"/>
    <trip id="361" depart="271.43" from="e5" to="e11"/>
    <trip id="362" depart="272.18" from="gneE2" to="gneE10"/>
    <trip id="363" depart="272.93" from="gneE4" to="gneE5"/>
    <trip id="364" depart="273.68" from="e10" to="gneE12"/>
    <trip id="365" depart="274.44" from="gneE11" to="gneE5"/>
    <trip id="366" depart="275.19" from="gneE9" to="e2"/>
    <trip id="367" depart="275.94" from="e12" to="e7"/>
    <trip id="368" depart="276.69" from="e13" to="e3"/>
    <trip id="369" depart="277.44" from="gneE8" to="gneE10"/>
    <trip id="370" depart="278.20" from="e9" to="e11"/>
    <trip id="371" depart="278.95" from="gneE4" to="gneE10"/>
    <trip id="372" depart="279.70" from="e3" to="gneE3"/>
    <trip id="373" depart="280.45" from="e9" to="e7"/>
    <trip id="374" depart="281.20" from="e3" to="gneE5"/>
    <trip id="375" depart="281.95" from="e5" to="e8"/>
    <trip id="376" depart="282.71" from="gneE6" to="e9"/>
    <trip id="377" depart="283.46" from="gneE5" to="e11"/>
    <trip id="378" depart="284.21" from="e9" to="gneE5"/>
    <trip id="379" depart="284.96" from="gneE4" to="gneE7"/>
    <trip id="380" depart="285.71" from="gneE7" to="e9"/>
    <trip id="381" depart="286.47" from="gneE5" to="gneE1"/>
    <trip id="382" depart="287.22" from="gneE5" to="e11"/>
    <trip id="383" depart="287.97" from="gneE5" to="e10"/>
    <trip id="384" depart="288.72" from="e8" to="gneE5"/>
    <trip id="385" depart="289.47" from="gneE7" to="e3"/>
    <trip id="386" depart="290.23" from="gneE12" to="e2"/>
    <trip id="387" depart="290.98" from="gneE3" to="e7"/>
    <trip id="388" depart="291.73" from="gneE12" to="e6"/>
    <trip id="389" depart="292.48" from="gneE11" to="gneE6"/>
    <trip id="390" depart="293.23" from="gneE1" to="e11"/>
    <trip id="391" depart="293.98" from="gneE9" to="e13"/>
    <trip id="392" depart="294.74" from="e12" to="gneE4"/>
    <trip id="393" depart="295.49" from="gneE9" to="e12"/>
    <trip id="394" depart="296.24" from="e6" to="gneE12"/>
    <trip id="395" depart="296.99" from="gneE10" to="e11"/>
    <trip id="396" depart="297.74" from="e10" to="gneE3"/>
    <trip id="397" depart="298.50" from="gneE8" to="e11"/>
    <trip id="398" depart="299.25" from="e5" to="gneE2"/>
    <trip id="399" depart="300.00" from="gneE9" to="gneE4"/>
</routes>
