<?xml version="1.0" encoding="UTF-8"?>
<!-- generated on 2020-11-15 01:54:15.793557 by simple-gym.py UNKNOWN
  options: 
-->
<routes xmlns:xsi="http://www.w3.org/2001/XMLSchema-instance" xsi:noNamespaceSchemaLocation="http://sumo.dlr.de/xsd/routes_file.xsd">
    <trip id="0" depart="0.00" from="gneE7" to="gneE3"/>
    <trip id="1" depart="4.80" from="gneE8" to="e10"/>
    <trip id="2" depart="9.60" from="e10" to="gneE6"/>
    <trip id="3" depart="14.40" from="gneE9" to="e14"/>
    <trip id="4" depart="19.20" from="gneE9" to="e9"/>
    <trip id="5" depart="24.00" from="gneE11" to="gneE2"/>
    <trip id="6" depart="28.80" from="e11" to="gneE8"/>
    <trip id="7" depart="33.60" from="gneE6" to="e12"/>
    <trip id="8" depart="38.40" from="gneE12" to="e11"/>
    <trip id="9" depart="43.20" from="e7" to="gneE9"/>
    <trip id="10" depart="48.00" from="gneE4" to="e10"/>
    <trip id="11" depart="52.80" from="e10" to="gneE5"/>
    <trip id="12" depart="57.60" from="e12" to="gneE1"/>
    <trip id="13" depart="62.40" from="e13" to="e2"/>
    <trip id="14" depart="67.20" from="e10" to="e2"/>
    <trip id="15" depart="72.00" from="gneE11" to="gneE9"/>
    <trip id="16" depart="76.80" from="gneE4" to="e8"/>
    <trip id="17" depart="81.60" from="e10" to="gneE3"/>
    <trip id="18" depart="86.40" from="e10" to="gneE9"/>
    <trip id="19" depart="91.20" from="gneE8" to="e2"/>
    <trip id="20" depart="96.00" from="e10" to="e6"/>
    <trip id="21" depart="100.80" from="e8" to="gneE9"/>
    <trip id="22" depart="105.60" from="gneE4" to="e11"/>
    <trip id="23" depart="110.40" from="e8" to="e11"/>
    <trip id="24" depart="115.20" from="e13" to="e2"/>
    <trip id="25" depart="120.00" from="e14" to="gneE11"/>
    <trip id="26" depart="124.80" from="gneE3" to="e2"/>
    <trip id="27" depart="129.60" from="e11" to="gneE6"/>
    <trip id="28" depart="134.40" from="e3" to="gneE9"/>
    <trip id="29" depart="139.20" from="gneE9" to="gneE12"/>
    <trip id="30" depart="144.00" from="gneE12" to="e6"/>
    <trip id="31" depart="148.80" from="gneE1" to="e10"/>
    <trip id="32" depart="153.60" from="e13" to="gneE9"/>
    <trip id="33" depart="158.40" from="gneE6" to="gneE10"/>
    <trip id="34" depart="163.20" from="e2" to="gneE4"/>
    <trip id="35" depart="168.00" from="e14" to="gneE6"/>
    <trip id="36" depart="172.80" from="gneE6" to="gneE6"/>
    <trip id="37" depart="177.60" from="e8" to="e10"/>
    <trip id="38" depart="182.40" from="e6" to="e7"/>
    <trip id="39" depart="187.20" from="gneE6" to="gneE9"/>
    <trip id="40" depart="192.00" from="e11" to="gneE7"/>
    <trip id="41" depart="196.80" from="e5" to="gneE8"/>
    <trip id="42" depart="201.60" from="e3" to="e10"/>
    <trip id="43" depart="206.40" from="e7" to="e11"/>
    <trip id="44" depart="211.20" from="e12" to="e12"/>
    <trip id="45" depart="216.00" from="e5" to="e14"/>
    <trip id="46" depart="220.80" from="gneE2" to="e13"/>
    <trip id="47" depart="225.60" from="e10" to="gneE2"/>
    <trip id="48" depart="230.40" from="e14" to="gneE6"/>
    <trip id="49" depart="235.20" from="gneE7" to="gneE9"/>
    <trip id="50" depart="240.00" from="e9" to="e12"/>
    <trip id="51" depart="244.80" from="gneE1" to="e11"/>
    <trip id="52" depart="249.60" from="e8" to="e11"/>
    <trip id="53" depart="254.40" from="e11" to="e14"/>
    <trip id="54" depart="259.20" from="gneE2" to="gneE9"/>
    <trip id="55" depart="264.00" from="e12" to="gneE8"/>
    <trip id="56" depart="268.80" from="e8" to="gneE9"/>
    <trip id="57" depart="273.60" from="gneE8" to="e10"/>
    <trip id="58" depart="278.40" from="gneE2" to="e9"/>
    <trip id="59" depart="283.20" from="gneE9" to="gneE6"/>
    <trip id="60" depart="288.00" from="e10" to="gneE3"/>
    <trip id="61" depart="292.80" from="gneE9" to="gneE5"/>
    <trip id="62" depart="297.60" from="e2" to="e3"/>
    <trip id="63" depart="302.40" from="e10" to="e14"/>
    <trip id="64" depart="307.20" from="e7" to="gneE9"/>
    <trip id="65" depart="312.00" from="e6" to="e11"/>
    <trip id="66" depart="316.80" from="e12" to="e12"/>
    <trip id="67" depart="321.60" from="gneE2" to="gneE9"/>
    <trip id="68" depart="326.40" from="gneE10" to="e10"/>
    <trip id="69" depart="331.20" from="e10" to="gneE7"/>
    <trip id="70" depart="336.00" from="e10" to="gneE8"/>
    <trip id="71" depart="340.80" from="e10" to="gneE9"/>
    <trip id="72" depart="345.60" from="gneE9" to="e5"/>
    <trip id="73" depart="350.40" from="e13" to="gneE9"/>
    <trip id="74" depart="355.20" from="gneE5" to="gneE7"/>
    <trip id="75" depart="360.00" from="gneE4" to="e10"/>
    <trip id="76" depart="364.80" from="gneE9" to="e14"/>
    <trip id="77" depart="369.60" from="e13" to="e10"/>
    <trip id="78" depart="374.40" from="e3" to="e10"/>
    <trip id="79" depart="379.20" from="gneE5" to="gneE6"/>
    <trip id="80" depart="384.00" from="gneE5" to="gneE9"/>
    <trip id="81" depart="388.80" from="gneE6" to="gneE7"/>
    <trip id="82" depart="393.60" from="gneE8" to="e7"/>
    <trip id="83" depart="398.40" from="gneE6" to="gneE11"/>
    <trip id="84" depart="403.20" from="gneE9" to="e10"/>
    <trip id="85" depart="408.00" from="e13" to="gneE5"/>
    <trip id="86" depart="412.80" from="gneE9" to="gneE9"/>
    <trip id="87" depart="417.60" from="gneE1" to="e10"/>
    <trip id="88" depart="422.40" from="e9" to="gneE5"/>
    <trip id="89" depart="427.20" from="gneE8" to="e13"/>
    <trip id="90" depart="432.00" from="e2" to="gneE7"/>
    <trip id="91" depart="436.80" from="e11" to="gneE7"/>
    <trip id="92" depart="441.60" from="gneE12" to="gneE5"/>
    <trip id="93" depart="446.40" from="gneE4" to="e14"/>
    <trip id="94" depart="451.20" from="e10" to="gneE9"/>
    <trip id="95" depart="456.00" from="gneE10" to="e13"/>
    <trip id="96" depart="460.80" from="e2" to="e12"/>
    <trip id="97" depart="465.60" from="e10" to="gneE4"/>
    <trip id="98" depart="470.40" from="gneE9" to="gneE9"/>
    <trip id="99" depart="475.20" from="gneE1" to="e12"/>
    <trip id="100" depart="480.00" from="gneE6" to="gneE11"/>
    <trip id="101" depart="484.80" from="e8" to="e12"/>
    <trip id="102" depart="489.60" from="gneE6" to="gneE3"/>
    <trip id="103" depart="494.40" from="gneE8" to="gneE10"/>
    <trip id="104" depart="499.20" from="e10" to="e3"/>
    <trip id="105" depart="504.00" from="gneE9" to="e9"/>
    <trip id="106" depart="508.80" from="e11" to="gneE2"/>
    <trip id="107" depart="513.60" from="e2" to="e10"/>
    <trip id="108" depart="518.40" from="gneE1" to="e12"/>
    <trip id="109" depart="523.20" from="e12" to="e13"/>
    <trip id="110" depart="528.00" from="e10" to="gneE8"/>
    <trip id="111" depart="532.80" from="e7" to="gneE6"/>
    <trip id="112" depart="537.60" from="gneE8" to="e10"/>
    <trip id="113" depart="542.40" from="e12" to="gneE4"/>
    <trip id="114" depart="547.20" from="e2" to="e10"/>
    <trip id="115" depart="552.00" from="gneE9" to="e2"/>
    <trip id="116" depart="556.80" from="e13" to="e2"/>
    <trip id="117" depart="561.60" from="gneE5" to="gneE9"/>
    <trip id="118" depart="566.40" from="e10" to="gneE10"/>
    <trip id="119" depart="571.20" from="gneE6" to="e10"/>
    <trip id="120" depart="576.00" from="gneE7" to="e2"/>
    <trip id="121" depart="580.80" from="gneE9" to="gneE7"/>
    <trip id="122" depart="585.60" from="gneE9" to="gneE12"/>
    <trip id="123" depart="590.40" from="e9" to="e10"/>
    <trip id="124" depart="595.20" from="e13" to="gneE6"/>
    <trip id="125" depart="600.00" from="gneE10" to="gneE6"/>
    <trip id="126" depart="604.80" from="e10" to="e10"/>
    <trip id="127" depart="609.60" from="e7" to="e10"/>
    <trip id="128" depart="614.40" from="gneE2" to="gneE6"/>
    <trip id="129" depart="619.20" from="e2" to="gneE4"/>
    <trip id="130" depart="624.00" from="gneE12" to="gneE9"/>
    <trip id="131" depart="628.80" from="gneE9" to="e2"/>
    <trip id="132" depart="633.60" from="e10" to="gneE11"/>
    <trip id="133" depart="638.40" from="e10" to="gneE2"/>
    <trip id="134" depart="643.20" from="e7" to="gneE9"/>
    <trip id="135" depart="648.00" from="gneE3" to="e7"/>
    <trip id="136" depart="652.80" from="e11" to="e10"/>
    <trip id="137" depart="657.60" from="gneE9" to="gneE6"/>
    <trip id="138" depart="662.40" from="gneE7" to="e13"/>
    <trip id="139" depart="667.20" from="e2" to="e10"/>
    <trip id="140" depart="672.00" from="gneE6" to="gneE9"/>
    <trip id="141" depart="676.80" from="e12" to="e8"/>
    <trip id="142" depart="681.60" from="gneE9" to="gneE12"/>
    <trip id="143" depart="686.40" from="e12" to="gneE4"/>
    <trip id="144" depart="691.20" from="gneE10" to="e10"/>
    <trip id="145" depart="696.00" from="gneE9" to="e12"/>
    <trip id="146" depart="700.80" from="gneE7" to="e8"/>
    <trip id="147" depart="705.60" from="gneE2" to="gneE6"/>
    <trip id="148" depart="710.40" from="gneE9" to="gneE3"/>
    <trip id="149" depart="715.20" from="gneE7" to="gneE3"/>
    <trip id="150" depart="720.00" from="e5" to="gneE11"/>
    <trip id="151" depart="724.80" from="gneE9" to="gneE1"/>
    <trip id="152" depart="729.60" from="e10" to="gneE1"/>
    <trip id="153" depart="734.40" from="e10" to="gneE7"/>
    <trip id="154" depart="739.20" from="gneE7" to="e14"/>
    <trip id="155" depart="744.00" from="e2" to="e5"/>
    <trip id="156" depart="748.80" from="e3" to="e12"/>
    <trip id="157" depart="753.60" from="gneE10" to="e10"/>
    <trip id="158" depart="758.40" from="gneE2" to="gneE8"/>
    <trip id="159" depart="763.20" from="e11" to="gneE6"/>
    <trip id="160" depart="768.00" from="gneE8" to="gneE11"/>
    <trip id="161" depart="772.80" from="gneE5" to="e10"/>
    <trip id="162" depart="777.60" from="gneE9" to="e10"/>
    <trip id="163" depart="782.40" from="gneE4" to="gneE6"/>
    <trip id="164" depart="787.20" from="gneE9" to="e14"/>
    <trip id="165" depart="792.00" from="e13" to="gneE5"/>
    <trip id="166" depart="796.80" from="gneE9" to="gneE1"/>
    <trip id="167" depart="801.60" from="gneE10" to="e10"/>
    <trip id="168" depart="806.40" from="e8" to="gneE6"/>
    <trip id="169" depart="811.20" from="e12" to="e3"/>
    <trip id="170" depart="816.00" from="gneE1" to="e13"/>
    <trip id="171" depart="820.80" from="gneE8" to="gneE6"/>
    <trip id="172" depart="825.60" from="e3" to="e10"/>
    <trip id="173" depart="830.40" from="e10" to="gneE9"/>
    <trip id="174" depart="835.20" from="gneE12" to="e10"/>
    <trip id="175" depart="840.00" from="gneE3" to="gneE10"/>
    <trip id="176" depart="844.80" from="gneE9" to="e12"/>
    <trip id="177" depart="849.60" from="gneE1" to="e8"/>
    <trip id="178" depart="854.40" from="gneE5" to="e6"/>
    <trip id="179" depart="859.20" from="gneE9" to="e10"/>
    <trip id="180" depart="864.00" from="gneE10" to="gneE9"/>
    <trip id="181" depart="868.80" from="gneE1" to="gneE1"/>
    <trip id="182" depart="873.60" from="gneE12" to="gneE6"/>
    <trip id="183" depart="878.40" from="e12" to="gneE9"/>
    <trip id="184" depart="883.20" from="gneE5" to="e13"/>
    <trip id="185" depart="888.00" from="e11" to="gneE7"/>
    <trip id="186" depart="892.80" from="gneE1" to="e10"/>
    <trip id="187" depart="897.60" from="e12" to="e10"/>
    <trip id="188" depart="902.40" from="gneE12" to="e5"/>
    <trip id="189" depart="907.20" from="e10" to="gneE9"/>
    <trip id="190" depart="912.00" from="e10" to="e10"/>
    <trip id="191" depart="916.80" from="e12" to="gneE4"/>
    <trip id="192" depart="921.60" from="e5" to="e10"/>
    <trip id="193" depart="926.40" from="gneE7" to="e6"/>
    <trip id="194" depart="931.20" from="e14" to="e5"/>
    <trip id="195" depart="936.00" from="e11" to="gneE8"/>
    <trip id="196" depart="940.80" from="e12" to="gneE9"/>
    <trip id="197" depart="945.60" from="gneE6" to="gneE5"/>
    <trip id="198" depart="950.40" from="gneE9" to="e10"/>
    <trip id="199" depart="955.20" from="e10" to="e8"/>
    <trip id="200" depart="960.00" from="e10" to="e14"/>
    <trip id="201" depart="964.80" from="e8" to="e2"/>
    <trip id="202" depart="969.60" from="e5" to="gneE9"/>
    <trip id="203" depart="974.40" from="gneE7" to="e10"/>
    <trip id="204" depart="979.20" from="e6" to="e2"/>
    <trip id="205" depart="984.00" from="gneE6" to="e5"/>
    <trip id="206" depart="988.80" from="gneE1" to="gneE9"/>
    <trip id="207" depart="993.60" from="e10" to="e2"/>
    <trip id="208" depart="998.40" from="e14" to="gneE7"/>
    <trip id="209" depart="1003.20" from="e6" to="gneE3"/>
    <trip id="210" depart="1008.00" from="gneE7" to="e13"/>
    <trip id="211" depart="1012.80" from="e14" to="e2"/>
    <trip id="212" depart="1017.60" from="gneE4" to="e12"/>
    <trip id="213" depart="1022.40" from="e11" to="gneE12"/>
    <trip id="214" depart="1027.20" from="e10" to="gneE7"/>
    <trip id="215" depart="1032.00" from="e11" to="e14"/>
    <trip id="216" depart="1036.80" from="gneE10" to="gneE9"/>
    <trip id="217" depart="1041.60" from="e7" to="e8"/>
    <trip id="218" depart="1046.40" from="e8" to="e3"/>
    <trip id="219" depart="1051.20" from="e11" to="gneE11"/>
    <trip id="220" depart="1056.00" from="e10" to="gneE1"/>
    <trip id="221" depart="1060.80" from="e8" to="gneE9"/>
    <trip id="222" depart="1065.60" from="gneE7" to="gneE9"/>
    <trip id="223" depart="1070.40" from="gneE2" to="gneE1"/>
    <trip id="224" depart="1075.20" from="e12" to="gneE7"/>
    <trip id="225" depart="1080.00" from="gneE11" to="gneE4"/>
    <trip id="226" depart="1084.80" from="gneE4" to="gneE6"/>
    <trip id="227" depart="1089.60" from="e13" to="gneE6"/>
    <trip id="228" depart="1094.40" from="gneE8" to="e13"/>
    <trip id="229" depart="1099.20" from="e2" to="gneE12"/>
    <trip id="230" depart="1104.00" from="gneE2" to="e11"/>
    <trip id="231" depart="1108.80" from="e10" to="e11"/>
    <trip id="232" depart="1113.60" from="gneE7" to="gneE9"/>
    <trip id="233" depart="1118.40" from="e10" to="gneE10"/>
    <trip id="234" depart="1123.20" from="e2" to="gneE1"/>
    <trip id="235" depart="1128.00" from="e10" to="e5"/>
    <trip id="236" depart="1132.80" from="e10" to="e14"/>
    <trip id="237" depart="1137.60" from="gneE9" to="gneE4"/>
    <trip id="238" depart="1142.40" from="e14" to="e5"/>
    <trip id="239" depart="1147.20" from="e10" to="e5"/>
    <trip id="240" depart="1152.00" from="gneE9" to="gneE4"/>
    <trip id="241" depart="1156.80" from="gneE3" to="e10"/>
    <trip id="242" depart="1161.60" from="e12" to="gneE2"/>
    <trip id="243" depart="1166.40" from="gneE10" to="gneE4"/>
    <trip id="244" depart="1171.20" from="gneE9" to="gneE3"/>
    <trip id="245" depart="1176.00" from="gneE12" to="e6"/>
    <trip id="246" depart="1180.80" from="e8" to="e14"/>
    <trip id="247" depart="1185.60" from="gneE6" to="e7"/>
    <trip id="248" depart="1190.40" from="gneE8" to="e11"/>
    <trip id="249" depart="1195.20" from="gneE6" to="e10"/>
    <trip id="250" depart="1200.00" from="gneE5" to="e2"/>
    <trip id="251" depart="1204.80" from="e9" to="e10"/>
    <trip id="252" depart="1209.60" from="gneE11" to="gneE5"/>
    <trip id="253" depart="1214.40" from="e13" to="gneE9"/>
    <trip id="254" depart="1219.20" from="gneE9" to="e2"/>
    <trip id="255" depart="1224.00" from="e7" to="e7"/>
    <trip id="256" depart="1228.80" from="e5" to="e10"/>
    <trip id="257" depart="1233.60" from="gneE5" to="e12"/>
    <trip id="258" depart="1238.40" from="gneE10" to="e3"/>
    <trip id="259" depart="1243.20" from="gneE11" to="e6"/>
    <trip id="260" depart="1248.00" from="e12" to="e11"/>
    <trip id="261" depart="1252.80" from="e10" to="e10"/>
    <trip id="262" depart="1257.60" from="gneE10" to="e5"/>
    <trip id="263" depart="1262.40" from="e11" to="gneE12"/>
    <trip id="264" depart="1267.20" from="e12" to="gneE4"/>
    <trip id="265" depart="1272.00" from="e10" to="e2"/>
    <trip id="266" depart="1276.80" from="gneE6" to="e10"/>
    <trip id="267" depart="1281.60" from="gneE9" to="gneE11"/>
    <trip id="268" depart="1286.40" from="e10" to="e10"/>
    <trip id="269" depart="1291.20" from="gneE11" to="gneE5"/>
    <trip id="270" depart="1296.00" from="e3" to="gneE5"/>
    <trip id="271" depart="1300.80" from="e10" to="gneE4"/>
    <trip id="272" depart="1305.60" from="e2" to="e9"/>
    <trip id="273" depart="1310.40" from="e5" to="gneE8"/>
    <trip id="274" depart="1315.20" from="gneE9" to="e7"/>
    <trip id="275" depart="1320.00" from="gneE9" to="gneE8"/>
    <trip id="276" depart="1324.80" from="gneE12" to="gneE8"/>
    <trip id="277" depart="1329.60" from="e11" to="gneE9"/>
    <trip id="278" depart="1334.40" from="e11" to="e5"/>
    <trip id="279" depart="1339.20" from="e11" to="e13"/>
    <trip id="280" depart="1344.00" from="e13" to="gneE3"/>
    <trip id="281" depart="1348.80" from="e10" to="e5"/>
    <trip id="282" depart="1353.60" from="e7" to="e2"/>
    <trip id="283" depart="1358.40" from="e10" to="gneE12"/>
    <trip id="284" depart="1363.20" from="e10" to="e2"/>
    <trip id="285" depart="1368.00" from="e3" to="e11"/>
    <trip id="286" depart="1372.80" from="e10" to="e10"/>
    <trip id="287" depart="1377.60" from="e12" to="e10"/>
    <trip id="288" depart="1382.40" from="e11" to="e6"/>
    <trip id="289" depart="1387.20" from="gneE8" to="e10"/>
    <trip id="290" depart="1392.00" from="gneE8" to="gneE11"/>
    <trip id="291" depart="1396.80" from="gneE9" to="e12"/>
    <trip id="292" depart="1401.60" from="e10" to="gneE7"/>
    <trip id="293" depart="1406.40" from="e5" to="gneE9"/>
    <trip id="294" depart="1411.20" from="gneE1" to="e10"/>
    <trip id="295" depart="1416.00" from="gneE12" to="e10"/>
    <trip id="296" depart="1420.80" from="gneE4" to="e5"/>
    <trip id="297" depart="1425.60" from="e10" to="e13"/>
    <trip id="298" depart="1430.40" from="gneE3" to="gneE10"/>
    <trip id="299" depart="1435.20" from="gneE6" to="gneE3"/>
    <trip id="300" depart="1440.00" from="e3" to="e3"/>
    <trip id="301" depart="1444.80" from="gneE12" to="gneE8"/>
    <trip id="302" depart="1449.60" from="e10" to="e12"/>
    <trip id="303" depart="1454.40" from="e10" to="gneE9"/>
    <trip id="304" depart="1459.20" from="e10" to="gneE3"/>
    <trip id="305" depart="1464.00" from="gneE2" to="e5"/>
    <trip id="306" depart="1468.80" from="gneE9" to="e14"/>
    <trip id="307" depart="1473.60" from="e14" to="e7"/>
    <trip id="308" depart="1478.40" from="e9" to="gneE7"/>
    <trip id="309" depart="1483.20" from="gneE5" to="e6"/>
    <trip id="310" depart="1488.00" from="e2" to="gneE11"/>
    <trip id="311" depart="1492.80" from="gneE4" to="e10"/>
    <trip id="312" depart="1497.60" from="gneE9" to="gneE12"/>
    <trip id="313" depart="1502.40" from="e11" to="e14"/>
    <trip id="314" depart="1507.20" from="gneE9" to="gneE7"/>
    <trip id="315" depart="1512.00" from="e10" to="e11"/>
    <trip id="316" depart="1516.80" from="gneE9" to="gneE7"/>
    <trip id="317" depart="1521.60" from="e6" to="gneE10"/>
    <trip id="318" depart="1526.40" from="e11" to="e3"/>
    <trip id="319" depart="1531.20" from="gneE11" to="e6"/>
    <trip id="320" depart="1536.00" from="e12" to="e11"/>
    <trip id="321" depart="1540.80" from="e2" to="gneE2"/>
    <trip id="322" depart="1545.60" from="e10" to="e11"/>
    <trip id="323" depart="1550.40" from="gneE7" to="gneE3"/>
    <trip id="324" depart="1555.20" from="e10" to="e10"/>
    <trip id="325" depart="1560.00" from="e2" to="gneE7"/>
    <trip id="326" depart="1564.80" from="gneE7" to="e13"/>
    <trip id="327" depart="1569.60" from="e13" to="gneE3"/>
    <trip id="328" depart="1574.40" from="e11" to="gneE2"/>
    <trip id="329" depart="1579.20" from="e3" to="e9"/>
    <trip id="330" depart="1584.00" from="e11" to="gneE3"/>
    <trip id="331" depart="1588.80" from="gneE10" to="e5"/>
    <trip id="332" depart="1593.60" from="gneE9" to="e5"/>
    <trip id="333" depart="1598.40" from="gneE9" to="e3"/>
    <trip id="334" depart="1603.20" from="gneE2" to="e7"/>
    <trip id="335" depart="1608.00" from="gneE3" to="gneE3"/>
    <trip id="336" depart="1612.80" from="gneE5" to="e6"/>
    <trip id="337" depart="1617.60" from="gneE7" to="e3"/>
    <trip id="338" depart="1622.40" from="e10" to="gneE2"/>
    <trip id="339" depart="1627.20" from="gneE10" to="e14"/>
    <trip id="340" depart="1632.00" from="e6" to="gneE9"/>
    <trip id="341" depart="1636.80" from="e2" to="e7"/>
    <trip id="342" depart="1641.60" from="e12" to="e8"/>
    <trip id="343" depart="1646.40" from="gneE1" to="gneE5"/>
    <trip id="344" depart="1651.20" from="e13" to="gneE4"/>
    <trip id="345" depart="1656.00" from="gneE9" to="e9"/>
    <trip id="346" depart="1660.80" from="e10" to="gneE6"/>
    <trip id="347" depart="1665.60" from="gneE1" to="gneE3"/>
    <trip id="348" depart="1670.40" from="e13" to="gneE4"/>
    <trip id="349" depart="1675.20" from="e10" to="gneE9"/>
    <trip id="350" depart="1680.00" from="gneE6" to="e11"/>
    <trip id="351" depart="1684.80" from="gneE4" to="e14"/>
    <trip id="352" depart="1689.60" from="e2" to="gneE4"/>
    <trip id="353" depart="1694.40" from="e8" to="e5"/>
    <trip id="354" depart="1699.20" from="gneE5" to="e5"/>
    <trip id="355" depart="1704.00" from="gneE2" to="gneE4"/>
    <trip id="356" depart="1708.80" from="gneE11" to="gneE3"/>
    <trip id="357" depart="1713.60" from="gneE8" to="gneE7"/>
    <trip id="358" depart="1718.40" from="gneE5" to="e9"/>
    <trip id="359" depart="1723.20" from="gneE8" to="e2"/>
    <trip id="360" depart="1728.00" from="gneE1" to="e10"/>
    <trip id="361" depart="1732.80" from="e10" to="gneE7"/>
    <trip id="362" depart="1737.60" from="gneE9" to="gneE6"/>
    <trip id="363" depart="1742.40" from="e11" to="gneE7"/>
    <trip id="364" depart="1747.20" from="gneE9" to="gneE11"/>
    <trip id="365" depart="1752.00" from="e9" to="e12"/>
    <trip id="366" depart="1756.80" from="gneE7" to="gneE8"/>
    <trip id="367" depart="1761.60" from="e10" to="gneE4"/>
    <trip id="368" depart="1766.40" from="e10" to="gneE4"/>
    <trip id="369" depart="1771.20" from="e10" to="gneE5"/>
    <trip id="370" depart="1776.00" from="gneE2" to="e3"/>
    <trip id="371" depart="1780.80" from="e11" to="e7"/>
    <trip id="372" depart="1785.60" from="gneE4" to="gneE8"/>
    <trip id="373" depart="1790.40" from="gneE9" to="e5"/>
    <trip id="374" depart="1795.20" from="gneE12" to="gneE9"/>
    <trip id="375" depart="1800.00" from="e7" to="gneE11"/>
    <trip id="376" depart="1804.80" from="gneE6" to="e3"/>
    <trip id="377" depart="1809.60" from="e6" to="gneE3"/>
    <trip id="378" depart="1814.40" from="e13" to="e2"/>
    <trip id="379" depart="1819.20" from="gneE9" to="e9"/>
    <trip id="380" depart="1824.00" from="gneE9" to="e11"/>
    <trip id="381" depart="1828.80" from="e3" to="gneE3"/>
    <trip id="382" depart="1833.60" from="gneE9" to="gneE5"/>
    <trip id="383" depart="1838.40" from="gneE1" to="gneE5"/>
    <trip id="384" depart="1843.20" from="gneE3" to="gneE9"/>
    <trip id="385" depart="1848.00" from="e11" to="e7"/>
    <trip id="386" depart="1852.80" from="e8" to="e9"/>
    <trip id="387" depart="1857.60" from="e12" to="gneE5"/>
    <trip id="388" depart="1862.40" from="e14" to="gneE2"/>
    <trip id="389" depart="1867.20" from="e2" to="e11"/>
    <trip id="390" depart="1872.00" from="gneE8" to="e10"/>
    <trip id="391" depart="1876.80" from="gneE1" to="e10"/>
    <trip id="392" depart="1881.60" from="e3" to="gneE9"/>
    <trip id="393" depart="1886.40" from="gneE2" to="e6"/>
    <trip id="394" depart="1891.20" from="e5" to="gneE6"/>
    <trip id="395" depart="1896.00" from="gneE8" to="e11"/>
    <trip id="396" depart="1900.80" from="gneE12" to="gneE1"/>
    <trip id="397" depart="1905.60" from="gneE1" to="e12"/>
    <trip id="398" depart="1910.40" from="gneE5" to="e2"/>
    <trip id="399" depart="1915.20" from="e10" to="e5"/>
    <trip id="400" depart="1920.00" from="e10" to="gneE6"/>
    <trip id="401" depart="1924.80" from="e10" to="gneE5"/>
    <trip id="402" depart="1929.60" from="gneE9" to="gneE12"/>
    <trip id="403" depart="1934.40" from="e10" to="e5"/>
    <trip id="404" depart="1939.20" from="gneE4" to="gneE2"/>
    <trip id="405" depart="1944.00" from="e12" to="e6"/>
    <trip id="406" depart="1948.80" from="gneE5" to="e7"/>
    <trip id="407" depart="1953.60" from="e10" to="e2"/>
    <trip id="408" depart="1958.40" from="gneE9" to="e10"/>
    <trip id="409" depart="1963.20" from="gneE2" to="e10"/>
    <trip id="410" depart="1968.00" from="e10" to="e8"/>
    <trip id="411" depart="1972.80" from="e10" to="e10"/>
    <trip id="412" depart="1977.60" from="e6" to="e10"/>
    <trip id="413" depart="1982.40" from="e13" to="e2"/>
    <trip id="414" depart="1987.20" from="gneE9" to="gneE9"/>
    <trip id="415" depart="1992.00" from="e11" to="e9"/>
    <trip id="416" depart="1996.80" from="gneE12" to="e11"/>
    <trip id="417" depart="2001.60" from="e5" to="e10"/>
    <trip id="418" depart="2006.40" from="e12" to="e2"/>
    <trip id="419" depart="2011.20" from="e13" to="gneE8"/>
    <trip id="420" depart="2016.00" from="e12" to="gneE12"/>
    <trip id="421" depart="2020.80" from="gneE9" to="gneE2"/>
    <trip id="422" depart="2025.60" from="gneE5" to="gneE8"/>
    <trip id="423" depart="2030.40" from="e2" to="e9"/>
    <trip id="424" depart="2035.20" from="gneE5" to="e10"/>
    <trip id="425" depart="2040.00" from="e12" to="e10"/>
    <trip id="426" depart="2044.80" from="gneE9" to="gneE3"/>
    <trip id="427" depart="2049.60" from="gneE6" to="e3"/>
    <trip id="428" depart="2054.40" from="e13" to="e3"/>
    <trip id="429" depart="2059.20" from="gneE4" to="e12"/>
    <trip id="430" depart="2064.00" from="e11" to="gneE9"/>
    <trip id="431" depart="2068.80" from="gneE4" to="gneE8"/>
    <trip id="432" depart="2073.60" from="gneE7" to="e5"/>
    <trip id="433" depart="2078.40" from="e10" to="gneE3"/>
    <trip id="434" depart="2083.20" from="gneE11" to="gneE2"/>
    <trip id="435" depart="2088.00" from="e13" to="gneE7"/>
    <trip id="436" depart="2092.80" from="e10" to="gneE9"/>
    <trip id="437" depart="2097.60" from="gneE6" to="e14"/>
    <trip id="438" depart="2102.40" from="gneE8" to="e3"/>
    <trip id="439" depart="2107.20" from="e7" to="gneE4"/>
    <trip id="440" depart="2112.00" from="gneE9" to="e5"/>
    <trip id="441" depart="2116.80" from="gneE2" to="e14"/>
    <trip id="442" depart="2121.60" from="e10" to="e7"/>
    <trip id="443" depart="2126.40" from="gneE9" to="gneE9"/>
    <trip id="444" depart="2131.20" from="gneE9" to="e13"/>
    <trip id="445" depart="2136.00" from="gneE3" to="e5"/>
    <trip id="446" depart="2140.80" from="e9" to="e10"/>
    <trip id="447" depart="2145.60" from="gneE9" to="e2"/>
    <trip id="448" depart="2150.40" from="gneE1" to="e2"/>
    <trip id="449" depart="2155.20" from="gneE11" to="gneE9"/>
    <trip id="450" depart="2160.00" from="gneE2" to="gneE4"/>
    <trip id="451" depart="2164.80" from="e7" to="gneE1"/>
    <trip id="452" depart="2169.60" from="gneE11" to="e13"/>
    <trip id="453" depart="2174.40" from="e13" to="gneE3"/>
    <trip id="454" depart="2179.20" from="e14" to="e11"/>
    <trip id="455" depart="2184.00" from="gneE12" to="gneE8"/>
    <trip id="456" depart="2188.80" from="gneE9" to="gneE1"/>
    <trip id="457" depart="2193.60" from="e2" to="gneE5"/>
    <trip id="458" depart="2198.40" from="gneE6" to="gneE1"/>
    <trip id="459" depart="2203.20" from="gneE12" to="e10"/>
    <trip id="460" depart="2208.00" from="e10" to="e11"/>
    <trip id="461" depart="2212.80" from="e5" to="e12"/>
    <trip id="462" depart="2217.60" from="gneE9" to="e3"/>
    <trip id="463" depart="2222.40" from="gneE9" to="gneE8"/>
    <trip id="464" depart="2227.20" from="gneE9" to="gneE8"/>
    <trip id="465" depart="2232.00" from="e8" to="e9"/>
    <trip id="466" depart="2236.80" from="e12" to="e10"/>
    <trip id="467" depart="2241.60" from="e10" to="e2"/>
    <trip id="468" depart="2246.40" from="e3" to="e7"/>
    <trip id="469" depart="2251.20" from="gneE8" to="gneE9"/>
    <trip id="470" depart="2256.00" from="e13" to="gneE4"/>
    <trip id="471" depart="2260.80" from="e10" to="gneE6"/>
    <trip id="472" depart="2265.60" from="e11" to="e13"/>
    <trip id="473" depart="2270.40" from="gneE9" to="e10"/>
    <trip id="474" depart="2275.20" from="e12" to="e3"/>
    <trip id="475" depart="2280.00" from="gneE8" to="e10"/>
    <trip id="476" depart="2284.80" from="e12" to="gneE9"/>
    <trip id="477" depart="2289.60" from="e11" to="e9"/>
    <trip id="478" depart="2294.40" from="e14" to="gneE3"/>
    <trip id="479" depart="2299.20" from="e10" to="e9"/>
    <trip id="480" depart="2304.00" from="e6" to="e13"/>
    <trip id="481" depart="2308.80" from="gneE8" to="gneE5"/>
    <trip id="482" depart="2313.60" from="gneE5" to="e5"/>
    <trip id="483" depart="2318.40" from="e14" to="e10"/>
    <trip id="484" depart="2323.20" from="e14" to="e11"/>
    <trip id="485" depart="2328.00" from="gneE9" to="gneE1"/>
    <trip id="486" depart="2332.80" from="e10" to="e12"/>
    <trip id="487" depart="2337.60" from="gneE5" to="gneE6"/>
    <trip id="488" depart="2342.40" from="e7" to="e11"/>
    <trip id="489" depart="2347.20" from="gneE9" to="e9"/>
    <trip id="490" depart="2352.00" from="gneE2" to="e11"/>
    <trip id="491" depart="2356.80" from="e12" to="gneE7"/>
    <trip id="492" depart="2361.60" from="e11" to="e7"/>
    <trip id="493" depart="2366.40" from="e13" to="e13"/>
    <trip id="494" depart="2371.20" from="e13" to="e10"/>
    <trip id="495" depart="2376.00" from="gneE2" to="gneE9"/>
    <trip id="496" depart="2380.80" from="gneE7" to="gneE7"/>
    <trip id="497" depart="2385.60" from="gneE9" to="e8"/>
    <trip id="498" depart="2390.40" from="gneE11" to="gneE2"/>
    <trip id="499" depart="2395.20" from="e12" to="e13"/>
    <trip id="500" depart="2400.00" from="e10" to="e10"/>
    <trip id="501" depart="2404.80" from="gneE3" to="e11"/>
    <trip id="502" depart="2409.60" from="gneE4" to="gneE8"/>
    <trip id="503" depart="2414.40" from="gneE12" to="gneE4"/>