<?xml version="1.0" encoding="UTF-8"?>
<!-- generated on 2020-12-21 18:06:08.485194 by $Id$ UNKNOWN
  options: 
-->
<routes xmlns:xsi="http://www.w3.org/2001/XMLSchema-instance" xsi:noNamespaceSchemaLocation="http://sumo.dlr.de/xsd/routes_file.xsd">
    <trip id="0" depart="0.00" from="e3" to="gneE2"/>
    <trip id="1" depart="0.63" from="e14" to="gneE12"/>
    <trip id="2" depart="1.27" from="e7" to="e14"/>
    <trip id="3" depart="1.90" from="gneE11" to="gneE7"/>
    <trip id="4" depart="2.54" from="gneE9" to="e10"/>
    <trip id="5" depart="3.17" from="gneE12" to="gneE4"/>
    <trip id="6" depart="3.81" from="e8" to="e2"/>
    <trip id="7" depart="4.44" from="e6" to="gneE6"/>
    <trip id="8" depart="5.07" from="e8" to="gneE2"/>
    <trip id="9" depart="5.71" from="e12" to="gneE6"/>
    <trip id="10" depart="6.34" from="e6" to="gneE8"/>
    <trip id="11" depart="6.98" from="gneE10" to="e9"/>
    <trip id="12" depart="7.61" from="e3" to="gneE9"/>
    <trip id="13" depart="8.25" from="gneE9" to="e2"/>
    <trip id="14" depart="8.88" from="gneE10" to="e10"/>
    <trip id="15" depart="9.51" from="gneE10" to="e9"/>
    <trip id="16" depart="10.15" from="gneE10" to="gneE11"/>
    <trip id="17" depart="10.78" from="gneE5" to="gneE7"/>
    <trip id="18" depart="11.42" from="gneE12" to="e2"/>
    <trip id="19" depart="12.05" from="e13" to="gneE10"/>
    <trip id="20" depart="12.68" from="e5" to="gneE11"/>
    <trip id="21" depart="13.32" from="e8" to="gneE11"/>
    <trip id="22" depart="13.95" from="gneE7" to="gneE3"/>
    <trip id="23" depart="14.59" from="e8" to="e9"/>
    <trip id="24" depart="15.22" from="e7" to="gneE12"/>
    <trip id="25" depart="15.86" from="gneE12" to="gneE4"/>
    <trip id="26" depart="16.49" from="e10" to="e13"/>
    <trip id="27" depart="17.12" from="e9" to="gneE6"/>
    <trip id="28" depart="17.76" from="gneE7" to="gneE6"/>
    <trip id="29" depart="18.39" from="e13" to="e9"/>
    <trip id="30" depart="19.03" from="gneE11" to="gneE8"/>
    <trip id="31" depart="19.66" from="gneE6" to="gneE1"/>
    <trip id="32" depart="20.30" from="gneE6" to="gneE3"/>
    <trip id="33" depart="20.93" from="gneE8" to="gneE8"/>
    <trip id="34" depart="21.56" from="gneE8" to="gneE1"/>
    <trip id="35" depart="22.20" from="e13" to="gneE12"/>
    <trip id="36" depart="22.83" from="gneE9" to="e11"/>
    <trip id="37" depart="23.47" from="e6" to="gneE1"/>
    <trip id="38" depart="24.10" from="e3" to="e5"/>
    <trip id="39" depart="24.74" from="e13" to="gneE1"/>
    <trip id="40" depart="25.37" from="gneE11" to="e13"/>
    <trip id="41" depart="26.00" from="gneE11" to="gneE8"/>
    <trip id="42" depart="26.64" from="e12" to="gneE7"/>
    <trip id="43" depart="27.27" from="e10" to="gneE1"/>
    <trip id="44" depart="27.91" from="e11" to="gneE4"/>
    <trip id="45" depart="28.54" from="gneE2" to="gneE12"/>
    <trip id="46" depart="29.18" from="e8" to="gneE8"/>
    <trip id="47" depart="29.81" from="gneE10" to="e11"/>
    <trip id="48" depart="30.44" from="gneE1" to="e7"/>
    <trip id="49" depart="31.08" from="gneE9" to="e8"/>
    <trip id="50" depart="31.71" from="e7" to="e10"/>
    <trip id="51" depart="32.35" from="e8" to="e8"/>
    <trip id="52" depart="32.98" from="e2" to="gneE12"/>
    <trip id="53" depart="33.62" from="gneE6" to="e14"/>
    <trip id="54" depart="34.25" from="gneE8" to="e8"/>
    <trip id="55" depart="34.88" from="gneE4" to="gneE3"/>
    <trip id="56" depart="35.52" from="gneE8" to="gneE12"/>
    <trip id="57" depart="36.15" from="e10" to="gneE5"/>
    <trip id="58" depart="36.79" from="e11" to="e8"/>
    <trip id="59" depart="37.42" from="gneE1" to="e12"/>
    <trip id="60" depart="38.05" from="e3" to="e7"/>
    <trip id="61" depart="38.69" from="e8" to="gneE5"/>
    <trip id="62" depart="39.32" from="gneE2" to="e11"/>
    <trip id="63" depart="39.96" from="gneE11" to="gneE4"/>
    <trip id="64" depart="40.59" from="e5" to="gneE6"/>
    <trip id="65" depart="41.23" from="gneE11" to="e11"/>
    <trip id="66" depart="41.86" from="gneE2" to="gneE8"/>
    <trip id="67" depart="42.49" from="gneE1" to="e10"/>
    <trip id="68" depart="43.13" from="e9" to="gneE4"/>
    <trip id="69" depart="43.76" from="gneE11" to="gneE4"/>
    <trip id="70" depart="44.40" from="gneE2" to="e3"/>
    <trip id="71" depart="45.03" from="gneE5" to="gneE1"/>
    <trip id="72" depart="45.67" from="e13" to="e14"/>
    <trip id="73" depart="46.30" from="gneE8" to="gneE4"/>
    <trip id="74" depart="46.93" from="e10" to="gneE8"/>
    <trip id="75" depart="47.57" from="e11" to="e12"/>
    <trip id="76" depart="48.20" from="gneE1" to="e12"/>
    <trip id="77" depart="48.84" from="gneE1" to="gneE12"/>
    <trip id="78" depart="49.47" from="gneE5" to="e3"/>
    <trip id="79" depart="50.11" from="gneE6" to="e13"/>
    <trip id="80" depart="50.74" from="e11" to="gneE2"/>
    <trip id="81" depart="51.37" from="gneE3" to="gneE5"/>
    <trip id="82" depart="52.01" from="e14" to="e13"/>
    <trip id="83" depart="52.64" from="e14" to="e7"/>
    <trip id="84" depart="53.28" from="e13" to="gneE5"/>
    <trip id="85" depart="53.91" from="gneE12" to="e6"/>
    <trip id="86" depart="54.55" from="e5" to="e9"/>
    <trip id="87" depart="55.18" from="e9" to="e14"/>
    <trip id="88" depart="55.81" from="gneE4" to="gneE6"/>
    <trip id="89" depart="56.45" from="e12" to="e5"/>
    <trip id="90" depart="57.08" from="e2" to="e7"/>
    <trip id="91" depart="57.72" from="gneE12" to="e12"/>
    <trip id="92" depart="58.35" from="e9" to="gneE3"/>
    <trip id="93" depart="58.99" from="gneE5" to="gneE9"/>
    <trip id="94" depart="59.62" from="e11" to="gneE9"/>
    <trip id="95" depart="60.25" from="gneE9" to="gneE11"/>
    <trip id="96" depart="60.89" from="gneE5" to="e7"/>
    <trip id="97" depart="61.52" from="e12" to="e3"/>
    <trip id="98" depart="62.16" from="e2" to="e11"/>
    <trip id="99" depart="62.79" from="gneE9" to="gneE1"/>
    <trip id="100" depart="63.42" from="gneE12" to="gneE7"/>
    <trip id="101" depart="64.06" from="e5" to="gneE6"/>
    <trip id="102" depart="64.69" from="e2" to="gneE9"/>
    <trip id="103" depart="65.33" from="gneE3" to="e6"/>
    <trip id="104" depart="65.96" from="gneE4" to="gneE12"/>
    <trip id="105" depart="66.60" from="gneE3" to="gneE10"/>
    <trip id="106" depart="67.23" from="gneE7" to="e7"/>
    <trip id="107" depart="67.86" from="e9" to="gneE11"/>
    <trip id="108" depart="68.50" from="gneE11" to="e2"/>
    <trip id="109" depart="69.13" from="e12" to="gneE3"/>
    <trip id="110" depart="69.77" from="e6" to="e2"/>
    <trip id="111" depart="70.40" from="e9" to="e14"/>
    <trip id="112" depart="71.04" from="e12" to="gneE1"/>
    <trip id="113" depart="71.67" from="gneE12" to="e7"/>
    <trip id="114" depart="72.30" from="e9" to="e10"/>
    <trip id="115" depart="72.94" from="gneE4" to="gneE1"/>
    <trip id="116" depart="73.57" from="e14" to="e9"/>
    <trip id="117" depart="74.21" from="e14" to="gneE2"/>
    <trip id="118" depart="74.84" from="gneE3" to="e10"/>
    <trip id="119" depart="75.48" from="e11" to="e11"/>
    <trip id="120" depart="76.11" from="gneE11" to="gneE6"/>
    <trip id="121" depart="76.74" from="gneE10" to="e5"/>
    <trip id="122" depart="77.38" from="e7" to="gneE11"/>
    <trip id="123" depart="78.01" from="e6" to="e12"/>
    <trip id="124" depart="78.65" from="gneE12" to="gneE12"/>
    <trip id="125" depart="79.28" from="gneE9" to="e9"/>
    <trip id="126" depart="79.92" from="e3" to="gneE11"/>
    <trip id="127" depart="80.55" from="e9" to="gneE12"/>
    <trip id="128" depart="81.18" from="e10" to="e13"/>
    <trip id="129" depart="81.82" from="gneE1" to="e3"/>
    <trip id="130" depart="82.45" from="e3" to="gneE2"/>
    <trip id="131" depart="83.09" from="gneE6" to="gneE6"/>
    <trip id="132" depart="83.72" from="e12" to="gneE11"/>
    <trip id="133" depart="84.36" from="gneE1" to="e2"/>
    <trip id="134" depart="84.99" from="e14" to="gneE7"/>
    <trip id="135" depart="85.62" from="e5" to="gneE3"/>
    <trip id="136" depart="86.26" from="gneE6" to="gneE2"/>
    <trip id="137" depart="86.89" from="gneE12" to="e5"/>
    <trip id="138" depart="87.53" from="e11" to="gneE3"/>
    <trip id="139" depart="88.16" from="e6" to="gneE4"/>
    <trip id="140" depart="88.79" from="e11" to="e9"/>
    <trip id="141" depart="89.43" from="e14" to="gneE4"/>
    <trip id="142" depart="90.06" from="gneE12" to="gneE9"/>
    <trip id="143" depart="90.70" from="e12" to="e9"/>
    <trip id="144" depart="91.33" from="gneE10" to="gneE12"/>
    <trip id="145" depart="91.97" from="e3" to="gneE11"/>
    <trip id="146" depart="92.60" from="gneE5" to="e9"/>
    <trip id="147" depart="93.23" from="gneE2" to="e14"/>
    <trip id="148" depart="93.87" from="gneE2" to="e8"/>
    <trip id="149" depart="94.50" from="e5" to="e5"/>
    <trip id="150" depart="95.14" from="gneE8" to="e13"/>
    <trip id="151" depart="95.77" from="e10" to="e3"/>
    <trip id="152" depart="96.41" from="gneE5" to="e2"/>
    <trip id="153" depart="97.04" from="e14" to="e8"/>
    <trip id="154" depart="97.67" from="gneE3" to="e12"/>
    <trip id="155" depart="98.31" from="gneE4" to="e10"/>
    <trip id="156" depart="98.94" from="e7" to="e6"/>
    <trip id="157" depart="99.58" from="gneE10" to="e3"/>
    <trip id="158" depart="100.21" from="gneE10" to="gneE4"/>
    <trip id="159" depart="100.85" from="gneE12" to="gneE12"/>
    <trip id="160" depart="101.48" from="gneE3" to="gneE11"/>
    <trip id="161" depart="102.11" from="e8" to="gneE6"/>
    <trip id="162" depart="102.75" from="e14" to="e11"/>
    <trip id="163" depart="103.38" from="gneE10" to="gneE6"/>
    <trip id="164" depart="104.02" from="gneE5" to="gneE3"/>
    <trip id="165" depart="104.65" from="gneE10" to="e14"/>
    <trip id="166" depart="105.29" from="e12" to="gneE5"/>
    <trip id="167" depart="105.92" from="e6" to="gneE12"/>
    <trip id="168" depart="106.55" from="e12" to="e6"/>
    <trip id="169" depart="107.19" from="e12" to="e2"/>
    <trip id="170" depart="107.82" from="gneE5" to="e14"/>
    <trip id="171" depart="108.46" from="gneE9" to="gneE7"/>
    <trip id="172" depart="109.09" from="e6" to="e14"/>
    <trip id="173" depart="109.73" from="gneE11" to="e5"/>
    <trip id="174" depart="110.36" from="gneE6" to="e7"/>
    <trip id="175" depart="110.99" from="e14" to="gneE5"/>
    <trip id="176" depart="111.63" from="gneE9" to="gneE10"/>
    <trip id="177" depart="112.26" from="e5" to="e3"/>
    <trip id="178" depart="112.90" from="gneE5" to="e10"/>
    <trip id="179" depart="113.53" from="gneE1" to="gneE10"/>
    <trip id="180" depart="114.16" from="gneE12" to="gneE9"/>
    <trip id="181" depart="114.80" from="e14" to="e11"/>
    <trip id="182" depart="115.43" from="gneE8" to="e8"/>
    <trip id="183" depart="116.07" from="e8" to="e9"/>
    <trip id="184" depart="116.70" from="e7" to="e5"/>
    <trip id="185" depart="117.34" from="e3" to="gneE8"/>
    <trip id="186" depart="117.97" from="e6" to="e3"/>
    <trip id="187" depart="118.60" from="e12" to="e3"/>
    <trip id="188" depart="119.24" from="e9" to="e13"/>
    <trip id="189" depart="119.87" from="e6" to="gneE12"/>
    <trip id="190" depart="120.51" from="gneE7" to="e12"/>
    <trip id="191" depart="121.14" from="gneE8" to="e3"/>
    <trip id="192" depart="121.78" from="gneE12" to="gneE5"/>
    <trip id="193" depart="122.41" from="gneE5" to="gneE1"/>
    <trip id="194" depart="123.04" from="gneE9" to="gneE8"/>
    <trip id="195" depart="123.68" from="gneE7" to="e10"/>
    <trip id="196" depart="124.31" from="e6" to="e12"/>
    <trip id="197" depart="124.95" from="e8" to="e14"/>
    <trip id="198" depart="125.58" from="gneE11" to="gneE5"/>
    <trip id="199" depart="126.22" from="e3" to="gneE4"/>
    <trip id="200" depart="126.85" from="gneE12" to="gneE3"/>
    <trip id="201" depart="127.48" from="gneE12" to="gneE9"/>
    <trip id="202" depart="128.12" from="e2" to="gneE10"/>
    <trip id="203" depart="128.75" from="gneE9" to="gneE9"/>
    <trip id="204" depart="129.39" from="e14" to="e11"/>
    <trip id="205" depart="130.02" from="e8" to="e6"/>
    <trip id="206" depart="130.66" from="gneE12" to="e8"/>
    <trip id="207" depart="131.29" from="e5" to="gneE2"/>
    <trip id="208" depart="131.92" from="e10" to="gneE2"/>
    <trip id="209" depart="132.56" from="gneE2" to="gneE5"/>
    <trip id="210" depart="133.19" from="gneE6" to="e6"/>
    <trip id="211" depart="133.83" from="e6" to="gneE7"/>
    <trip id="212" depart="134.46" from="e7" to="gneE4"/>
    <trip id="213" depart="135.10" from="gneE11" to="e5"/>
    <trip id="214" depart="135.73" from="gneE8" to="gneE2"/>
    <trip id="215" depart="136.36" from="e9" to="e3"/>
    <trip id="216" depart="137.00" from="gneE9" to="gneE11"/>
    <trip id="217" depart="137.63" from="gneE6" to="e12"/>
    <trip id="218" depart="138.27" from="gneE1" to="e8"/>
    <trip id="219" depart="138.90" from="e9" to="e10"/>
    <trip id="220" depart="139.53" from="gneE4" to="e3"/>
    <trip id="221" depart="140.17" from="e8" to="gneE7"/>
    <trip id="222" depart="140.80" from="e5" to="e2"/>
    <trip id="223" depart="141.44" from="e6" to="gneE10"/>
    <trip id="224" depart="142.07" from="e6" to="e12"/>
    <trip id="225" depart="142.71" from="e8" to="gneE9"/>
    <trip id="226" depart="143.34" from="e7" to="gneE11"/>
    <trip id="227" depart="143.97" from="e7" to="gneE8"/>
    <trip id="228" depart="144.61" from="e6" to="e5"/>
    <trip id="229" depart="145.24" from="gneE11" to="e10"/>
    <trip id="230" depart="145.88" from="gneE5" to="e12"/>
    <trip id="231" depart="146.51" from="e7" to="gneE5"/>
    <trip id="232" depart="147.15" from="e7" to="e10"/>
    <trip id="233" depart="147.78" from="gneE5" to="gneE3"/>
    <trip id="234" depart="148.41" from="gneE9" to="e7"/>
    <trip id="235" depart="149.05" from="e10" to="e12"/>
    <trip id="236" depart="149.68" from="gneE11" to="gneE2"/>
    <trip id="237" depart="150.32" from="e12" to="gneE11"/>
    <trip id="238" depart="150.95" from="e3" to="e6"/>
    <trip id="239" depart="151.59" from="gneE2" to="e10"/>
    <trip id="240" depart="152.22" from="gneE8" to="e7"/>
    <trip id="241" depart="152.85" from="e12" to="gneE8"/>
    <trip id="242" depart="153.49" from="e5" to="e11"/>
    <trip id="243" depart="154.12" from="e3" to="e2"/>
    <trip id="244" depart="154.76" from="e8" to="gneE11"/>
    <trip id="245" depart="155.39" from="gneE9" to="e14"/>
    <trip id="246" depart="156.03" from="gneE3" to="gneE8"/>
    <trip id="247" depart="156.66" from="gneE7" to="gneE7"/>
    <trip id="248" depart="157.29" from="gneE2" to="e6"/>
    <trip id="249" depart="157.93" from="gneE6" to="e11"/>
    <trip id="250" depart="158.56" from="e3" to="gneE10"/>
    <trip id="251" depart="159.20" from="gneE6" to="gneE12"/>
    <trip id="252" depart="159.83" from="e2" to="gneE7"/>
    <trip id="253" depart="160.47" from="gneE2" to="gneE10"/>
    <trip id="254" depart="161.10" from="e9" to="e11"/>
    <trip id="255" depart="161.73" from="e5" to="e10"/>
    <trip id="256" depart="162.37" from="gneE4" to="e5"/>
    <trip id="257" depart="163.00" from="e10" to="gneE11"/>
    <trip id="258" depart="163.64" from="gneE5" to="gneE4"/>
    <trip id="259" depart="164.27" from="e9" to="gneE9"/>
    <trip id="260" depart="164.90" from="gneE8" to="e13"/>
    <trip id="261" depart="165.54" from="gneE12" to="gneE12"/>
    <trip id="262" depart="166.17" from="gneE9" to="e13"/>
    <trip id="263" depart="166.81" from="e5" to="e7"/>
    <trip id="264" depart="167.44" from="e6" to="gneE5"/>
    <trip id="265" depart="168.08" from="e12" to="e2"/>
    <trip id="266" depart="168.71" from="e8" to="e6"/>
    <trip id="267" depart="169.34" from="e9" to="e11"/>
    <trip id="268" depart="169.98" from="e10" to="gneE6"/>
    <trip id="269" depart="170.61" from="gneE9" to="gneE5"/>
    <trip id="270" depart="171.25" from="e3" to="gneE11"/>
    <trip id="271" depart="171.88" from="e2" to="e10"/>
    <trip id="272" depart="172.52" from="gneE6" to="e5"/>
    <trip id="273" depart="173.15" from="e7" to="gneE4"/>
    <trip id="274" depart="173.78" from="e11" to="e5"/>
    <trip id="275" depart="174.42" from="gneE1" to="e14"/>
    <trip id="276" depart="175.05" from="e3" to="gneE6"/>
    <trip id="277" depart="175.69" from="gneE7" to="gneE6"/>
    <trip id="278" depart="176.32" from="gneE11" to="e14"/>
    <trip id="279" depart="176.96" from="gneE11" to="e13"/>
    <trip id="280" depart="177.59" from="gneE12" to="e3"/>
    <trip id="281" depart="178.22" from="gneE4" to="gneE3"/>
    <trip id="282" depart="178.86" from="e5" to="e11"/>
    <trip id="283" depart="179.49" from="gneE10" to="e12"/>
    <trip id="284" depart="180.13" from="gneE2" to="e13"/>
    <trip id="285" depart="180.76" from="e8" to="e11"/>
    <trip id="286" depart="181.40" from="gneE12" to="e13"/>
    <trip id="287" depart="182.03" from="gneE5" to="e13"/>
    <trip id="288" depart="182.66" from="e8" to="e12"/>
    <trip id="289" depart="183.30" from="gneE7" to="e3"/>
    <trip id="290" depart="183.93" from="gneE11" to="e9"/>
    <trip id="291" depart="184.57" from="gneE9" to="gneE10"/>
    <trip id="292" depart="185.20" from="gneE3" to="e6"/>
    <trip id="293" depart="185.84" from="e10" to="gneE11"/>
    <trip id="294" depart="186.47" from="e5" to="gneE10"/>
    <trip id="295" depart="187.10" from="gneE3" to="e6"/>
    <trip id="296" depart="187.74" from="gneE7" to="gneE8"/>
    <trip id="297" depart="188.37" from="e13" to="e14"/>
    <trip id="298" depart="189.01" from="gneE6" to="e5"/>
    <trip id="299" depart="189.64" from="e2" to="e5"/>
    <trip id="300" depart="190.27" from="gneE3" to="e8"/>
    <trip id="301" depart="190.91" from="gneE12" to="e10"/>
    <trip id="302" depart="191.54" from="gneE2" to="e11"/>
    <trip id="303" depart="192.18" from="e9" to="gneE3"/>
    <trip id="304" depart="192.81" from="e2" to="e10"/>
    <trip id="305" depart="193.45" from="gneE3" to="gneE12"/>
    <trip id="306" depart="194.08" from="e2" to="gneE1"/>
    <trip id="307" depart="194.71" from="e9" to="e12"/>
    <trip id="308" depart="195.35" from="gneE8" to="e10"/>
    <trip id="309" depart="195.98" from="e8" to="gneE11"/>
    <trip id="310" depart="196.62" from="gneE3" to="gneE11"/>
    <trip id="311" depart="197.25" from="e12" to="gneE7"/>
    <trip id="312" depart="197.89" from="e5" to="e13"/>
    <trip id="313" depart="198.52" from="gneE9" to="gneE3"/>
    <trip id="314" depart="199.15" from="gneE4" to="e10"/>
    <trip id="315" depart="199.79" from="e7" to="gneE10"/>
    <trip id="316" depart="200.42" from="gneE1" to="gneE11"/>
    <trip id="317" depart="201.06" from="e7" to="gneE4"/>
    <trip id="318" depart="201.69" from="gneE11" to="e7"/>
    <trip id="319" depart="202.33" from="gneE12" to="gneE8"/>
    <trip id="320" depart="202.96" from="e7" to="gneE11"/>
    <trip id="321" depart="203.59" from="gneE5" to="gneE7"/>
    <trip id="322" depart="204.23" from="e8" to="gneE10"/>
    <trip id="323" depart="204.86" from="gneE10" to="gneE5"/>
    <trip id="324" depart="205.50" from="e8" to="e2"/>
    <trip id="325" depart="206.13" from="e5" to="gneE1"/>
    <trip id="326" depart="206.77" from="gneE12" to="e10"/>
    <trip id="327" depart="207.40" from="e2" to="e12"/>
    <trip id="328" depart="208.03" from="e5" to="gneE2"/>
    <trip id="329" depart="208.67" from="e9" to="e14"/>
    <trip id="330" depart="209.30" from="e3" to="e8"/>
    <trip id="331" depart="209.94" from="e9" to="gneE3"/>
    <trip id="332" depart="210.57" from="gneE11" to="gneE5"/>
    <trip id="333" depart="211.21" from="gneE1" to="gneE2"/>
    <trip id="334" depart="211.84" from="e13" to="e12"/>
    <trip id="335" depart="212.47" from="gneE3" to="e2"/>
    <trip id="336" depart="213.11" from="gneE11" to="gneE6"/>
    <trip id="337" depart="213.74" from="e12" to="e7"/>
    <trip id="338" depart="214.38" from="gneE10" to="gneE5"/>
    <trip id="339" depart="215.01" from="e10" to="e12"/>
    <trip id="340" depart="215.64" from="e14" to="gneE4"/>
    <trip id="341" depart="216.28" from="gneE9" to="gneE3"/>
    <trip id="342" depart="216.91" from="gneE10" to="gneE10"/>
    <trip id="343" depart="217.55" from="e13" to="gneE7"/>
    <trip id="344" depart="218.18" from="e2" to="gneE12"/>
    <trip id="345" depart="218.82" from="gneE3" to="gneE10"/>
    <trip id="346" depart="219.45" from="gneE6" to="gneE11"/>
    <trip id="347" depart="220.08" from="gneE7" to="e3"/>
    <trip id="348" depart="220.72" from="gneE5" to="gneE7"/>
    <trip id="349" depart="221.35" from="gneE8" to="e14"/>
    <trip id="350" depart="221.99" from="e3" to="e3"/>
    <trip id="351" depart="222.62" from="gneE7" to="gneE4"/>
    <trip id="352" depart="223.26" from="gneE11" to="e9"/>
    <trip id="353" depart="223.89" from="e13" to="e11"/>
    <trip id="354" depart="224.52" from="gneE11" to="gneE2"/>
    <trip id="355" depart="225.16" from="e8" to="e8"/>
    <trip id="356" depart="225.79" from="gneE11" to="e11"/>
    <trip id="357" depart="226.43" from="gneE6" to="e5"/>
    <trip id="358" depart="227.06" from="gneE1" to="gneE6"/>
    <trip id="359" depart="227.70" from="gneE5" to="e12"/>
    <trip id="360" depart="228.33" from="e11" to="e9"/>
    <trip id="361" depart="228.96" from="e5" to="e7"/>
    <trip id="362" depart="229.60" from="gneE3" to="gneE12"/>
    <trip id="363" depart="230.23" from="gneE3" to="gneE7"/>
    <trip id="364" depart="230.87" from="e7" to="e6"/>
    <trip id="365" depart="231.50" from="gneE10" to="e7"/>
    <trip id="366" depart="232.14" from="e11" to="gneE7"/>
    <trip id="367" depart="232.77" from="e12" to="e3"/>
    <trip id="368" depart="233.40" from="e14" to="gneE7"/>
    <trip id="369" depart="234.04" from="gneE9" to="gneE11"/>
    <trip id="370" depart="234.67" from="e8" to="gneE4"/>
    <trip id="371" depart="235.31" from="e12" to="e6"/>
    <trip id="372" depart="235.94" from="gneE9" to="gneE11"/>
    <trip id="373" depart="236.58" from="e6" to="e6"/>
    <trip id="374" depart="237.21" from="gneE6" to="gneE12"/>
    <trip id="375" depart="237.84" from="e8" to="e12"/>
    <trip id="376" depart="238.48" from="e6" to="e2"/>
    <trip id="377" depart="239.11" from="e11" to="gneE1"/>
    <trip id="378" depart="239.75" from="gneE2" to="gneE10"/>
    <trip id="379" depart="240.38" from="e14" to="gneE2"/>
    <trip id="380" depart="241.01" from="gneE10" to="gneE1"/>
    <trip id="381" depart="241.65" from="gneE3" to="gneE6"/>
    <trip id="382" depart="242.28" from="e7" to="e3"/>
    <trip id="383" depart="242.92" from="e3" to="gneE10"/>
    <trip id="384" depart="243.55" from="gneE10" to="gneE4"/>
    <trip id="385" depart="244.19" from="e12" to="gneE8"/>
    <trip id="386" depart="244.82" from="e3" to="gneE1"/>
    <trip id="387" depart="245.45" from="gneE4" to="gneE3"/>
    <trip id="388" depart="246.09" from="e7" to="e8"/>
    <trip id="389" depart="246.72" from="e12" to="gneE1"/>
    <trip id="390" depart="247.36" from="gneE1" to="gneE8"/>
    <trip id="391" depart="247.99" from="e2" to="gneE1"/>
    <trip id="392" depart="248.63" from="e11" to="e12"/>
    <trip id="393" depart="249.26" from="e11" to="e13"/>
    <trip id="394" depart="249.89" from="e11" to="e3"/>
    <trip id="395" depart="250.53" from="e9" to="e11"/>
    <trip id="396" depart="251.16" from="e5" to="gneE4"/>
    <trip id="397" depart="251.80" from="gneE3" to="e10"/>
    <trip id="398" depart="252.43" from="gneE5" to="gneE9"/>
    <trip id="399" depart="253.07" from="gneE1" to="gneE7"/>
    <trip id="400" depart="253.70" from="gneE7" to="gneE9"/>
    <trip id="401" depart="254.33" from="e9" to="e6"/>
    <trip id="402" depart="254.97" from="gneE6" to="e9"/>
    <trip id="403" depart="255.60" from="e8" to="gneE8"/>
    <trip id="404" depart="256.24" from="e7" to="e5"/>
    <trip id="405" depart="256.87" from="e3" to="gneE3"/>
    <trip id="406" depart="257.51" from="gneE11" to="gneE5"/>
    <trip id="407" depart="258.14" from="gneE11" to="e6"/>
    <trip id="408" depart="258.77" from="gneE8" to="gneE12"/>
    <trip id="409" depart="259.41" from="gneE9" to="gneE1"/>
    <trip id="410" depart="260.04" from="gneE12" to="gneE1"/>
    <trip id="411" depart="260.68" from="gneE6" to="gneE1"/>
    <trip id="412" depart="261.31" from="gneE2" to="e5"/>
    <trip id="413" depart="261.95" from="gneE12" to="e2"/>
    <trip id="414" depart="262.58" from="gneE10" to="e5"/>
    <trip id="415" depart="263.21" from="gneE10" to="e3"/>
    <trip id="416" depart="263.85" from="e12" to="gneE7"/>
    <trip id="417" depart="264.48" from="gneE3" to="gneE5"/>
    <trip id="418" depart="265.12" from="gneE3" to="e9"/>
    <trip id="419" depart="265.75" from="gneE3" to="e9"/>
    <trip id="420" depart="266.38" from="gneE1" to="e6"/>
    <trip id="421" depart="267.02" from="gneE9" to="e8"/>
    <trip id="422" depart="267.65" from="gneE7" to="e6"/>
    <trip id="423" depart="268.29" from="gneE10" to="gneE11"/>
    <trip id="424" depart="268.92" from="e14" to="e5"/>
    <trip id="425" depart="269.56" from="e12" to="gneE8"/>
    <trip id="426" depart="270.19" from="e14" to="e14"/>
    <trip id="427" depart="270.82" from="e9" to="gneE3"/>
    <trip id="428" depart="271.46" from="e7" to="gneE12"/>
    <trip id="429" depart="272.09" from="gneE5" to="gneE8"/>
    <trip id="430" depart="272.73" from="e8" to="gneE9"/>
    <trip id="431" depart="273.36" from="e7" to="e14"/>
    <trip id="432" depart="274.00" from="e8" to="e14"/>
    <trip id="433" depart="274.63" from="gneE7" to="gneE6"/>
    <trip id="434" depart="275.26" from="gneE2" to="e2"/>
    <trip id="435" depart="275.90" from="gneE1" to="gneE1"/>
    <trip id="436" depart="276.53" from="e8" to="e12"/>
    <trip id="437" depart="277.17" from="gneE7" to="gneE7"/>
    <trip id="438" depart="277.80" from="e14" to="e11"/>
    <trip id="439" depart="278.44" from="e14" to="gneE5"/>
    <trip id="440" depart="279.07" from="gneE1" to="e12"/>
    <trip id="441" depart="279.70" from="e10" to="gneE2"/>
    <trip id="442" depart="280.34" from="e12" to="gneE6"/>
    <trip id="443" depart="280.97" from="gneE11" to="gneE1"/>
    <trip id="444" depart="281.61" from="gneE3" to="gneE10"/>
    <trip id="445" depart="282.24" from="gneE7" to="gneE8"/>
    <trip id="446" depart="282.88" from="e14" to="gneE10"/>
    <trip id="447" depart="283.51" from="e7" to="gneE10"/>
    <trip id="448" depart="284.14" from="gneE2" to="e5"/>
    <trip id="449" depart="284.78" from="e8" to="gneE4"/>
    <trip id="450" depart="285.41" from="gneE10" to="gneE12"/>
    <trip id="451" depart="286.05" from="e8" to="e5"/>
    <trip id="452" depart="286.68" from="gneE3" to="e11"/>
    <trip id="453" depart="287.32" from="gneE3" to="e5"/>
    <trip id="454" depart="287.95" from="gneE10" to="gneE2"/>
    <trip id="455" depart="288.58" from="gneE11" to="gneE11"/>
    <trip id="456" depart="289.22" from="e5" to="gneE4"/>
    <trip id="457" depart="289.85" from="gneE11" to="gneE12"/>
    <trip id="458" depart="290.49" from="e5" to="e2"/>
    <trip id="459" depart="291.12" from="gneE2" to="gneE6"/>
    <trip id="460" depart="291.75" from="gneE10" to="gneE6"/>
    <trip id="461" depart="292.39" from="gneE8" to="e2"/>
    <trip id="462" depart="293.02" from="e14" to="e13"/>
    <trip id="463" depart="293.66" from="e3" to="gneE5"/>
    <trip id="464" depart="294.29" from="e5" to="e2"/>
    <trip id="465" depart="294.93" from="e3" to="e3"/>
    <trip id="466" depart="295.56" from="gneE2" to="e13"/>
    <trip id="467" depart="296.19" from="e9" to="e8"/>
    <trip id="468" depart="296.83" from="gneE12" to="e3"/>
    <trip id="469" depart="297.46" from="gneE6" to="e2"/>
    <trip id="470" depart="298.10" from="gneE1" to="e10"/>
    <trip id="471" depart="298.73" from="gneE10" to="e13"/>
    <trip id="472" depart="299.37" from="gneE1" to="e9"/>
</routes>
