<?xml version="1.0" encoding="UTF-8"?>
<!-- generated on 2020-12-14 11:23:03.688798 by ray-train.py UNKNOWN
  options: 
-->
<routes xmlns:xsi="http://www.w3.org/2001/XMLSchema-instance" xsi:noNamespaceSchemaLocation="http://sumo.dlr.de/xsd/routes_file.xsd">
    <trip id="0" depart="0.00" from="gneE8" to="e7"/>
    <trip id="1" depart="4.06" from="gneE10" to="gneE9"/>
    <trip id="2" depart="8.11" from="e11" to="e3"/>
    <trip id="3" depart="12.17" from="gneE11" to="gneE9"/>
    <trip id="4" depart="16.23" from="gneE11" to="e8"/>
    <trip id="5" depart="20.28" from="e5" to="e9"/>
    <trip id="6" depart="24.34" from="gneE6" to="gneE5"/>
    <trip id="7" depart="28.39" from="e11" to="gneE9"/>
    <trip id="8" depart="32.45" from="gneE1" to="e11"/>
    <trip id="9" depart="36.51" from="e5" to="gneE9"/>
    <trip id="10" depart="40.56" from="gneE6" to="gneE7"/>
    <trip id="11" depart="44.62" from="e10" to="e12"/>
    <trip id="12" depart="48.68" from="gneE4" to="e3"/>
    <trip id="13" depart="52.73" from="gneE1" to="e8"/>
    <trip id="14" depart="56.79" from="gneE6" to="gneE7"/>
    <trip id="15" depart="60.84" from="gneE7" to="gneE11"/>
    <trip id="16" depart="64.90" from="gneE9" to="e10"/>
    <trip id="17" depart="68.96" from="e7" to="e6"/>
    <trip id="18" depart="73.01" from="gneE11" to="gneE2"/>
    <trip id="19" depart="77.07" from="gneE7" to="gneE8"/>
    <trip id="20" depart="81.13" from="e3" to="e2"/>
    <trip id="21" depart="85.18" from="gneE12" to="e6"/>
    <trip id="22" depart="89.24" from="e14" to="gneE5"/>
    <trip id="23" depart="93.29" from="e2" to="e2"/>
    <trip id="24" depart="97.35" from="e14" to="gneE10"/>
    <trip id="25" depart="101.41" from="e10" to="e11"/>
    <trip id="26" depart="105.46" from="gneE8" to="e5"/>
    <trip id="27" depart="109.52" from="gneE8" to="e10"/>
    <trip id="28" depart="113.58" from="e7" to="e14"/>
    <trip id="29" depart="117.63" from="e13" to="e14"/>
    <trip id="30" depart="121.69" from="e13" to="e7"/>
    <trip id="31" depart="125.74" from="gneE8" to="gneE9"/>
    <trip id="32" depart="129.80" from="e2" to="e9"/>
    <trip id="33" depart="133.86" from="e13" to="gneE11"/>
    <trip id="34" depart="137.91" from="gneE1" to="gneE10"/>
    <trip id="35" depart="141.97" from="e2" to="gneE9"/>
    <trip id="36" depart="146.03" from="e6" to="e9"/>
    <trip id="37" depart="150.08" from="e10" to="e9"/>
    <trip id="38" depart="154.14" from="gneE6" to="gneE9"/>
    <trip id="39" depart="158.19" from="gneE1" to="gneE4"/>
    <trip id="40" depart="162.25" from="gneE4" to="e9"/>
    <trip id="41" depart="166.31" from="e3" to="e3"/>
    <trip id="42" depart="170.36" from="e10" to="e5"/>
    <trip id="43" depart="174.42" from="gneE9" to="gneE9"/>
    <trip id="44" depart="178.48" from="gneE10" to="e3"/>
    <trip id="45" depart="182.53" from="gneE1" to="e14"/>
    <trip id="46" depart="186.59" from="e2" to="e11"/>
    <trip id="47" depart="190.64" from="e8" to="gneE3"/>
    <trip id="48" depart="194.70" from="e3" to="e5"/>
    <trip id="49" depart="198.76" from="gneE3" to="e10"/>
    <trip id="50" depart="202.81" from="gneE3" to="gneE5"/>
    <trip id="51" depart="206.87" from="e5" to="e5"/>
    <trip id="52" depart="210.93" from="e14" to="gneE12"/>
    <trip id="53" depart="214.98" from="e3" to="e10"/>
    <trip id="54" depart="219.04" from="e6" to="gneE6"/>
    <trip id="55" depart="223.09" from="e5" to="gneE2"/>
    <trip id="56" depart="227.15" from="gneE1" to="e3"/>
    <trip id="57" depart="231.21" from="gneE7" to="gneE5"/>
    <trip id="58" depart="235.26" from="e13" to="gneE4"/>
    <trip id="59" depart="239.32" from="e3" to="e7"/>
    <trip id="60" depart="243.38" from="gneE9" to="e14"/>
    <trip id="61" depart="247.43" from="e9" to="gneE6"/>
    <trip id="62" depart="251.49" from="gneE10" to="e8"/>
    <trip id="63" depart="255.55" from="e6" to="gneE7"/>
    <trip id="64" depart="259.60" from="gneE5" to="e10"/>
    <trip id="65" depart="263.66" from="e12" to="gneE10"/>
    <trip id="66" depart="267.71" from="e6" to="e6"/>
    <trip id="67" depart="271.77" from="e5" to="e11"/>
    <trip id="68" depart="275.83" from="gneE8" to="e13"/>
    <trip id="69" depart="279.88" from="e12" to="gneE6"/>
    <trip id="70" depart="283.94" from="gneE11" to="gneE6"/>
    <trip id="71" depart="288.00" from="e13" to="e6"/>
    <trip id="72" depart="292.05" from="gneE1" to="e8"/>
    <trip id="73" depart="296.11" from="e10" to="gneE11"/>
    <trip id="74" depart="300.16" from="e14" to="e5"/>
    <trip id="75" depart="304.22" from="gneE4" to="gneE10"/>
    <trip id="76" depart="308.28" from="e2" to="gneE6"/>
    <trip id="77" depart="312.33" from="gneE7" to="e2"/>
    <trip id="78" depart="316.39" from="e2" to="e12"/>
    <trip id="79" depart="320.45" from="gneE1" to="e3"/>
    <trip id="80" depart="324.50" from="gneE3" to="e6"/>
    <trip id="81" depart="328.56" from="e8" to="gneE9"/>
    <trip id="82" depart="332.61" from="gneE11" to="e13"/>
    <trip id="83" depart="336.67" from="e13" to="gneE11"/>
    <trip id="84" depart="340.73" from="gneE1" to="e6"/>
    <trip id="85" depart="344.78" from="e14" to="e13"/>
    <trip id="86" depart="348.84" from="e2" to="e5"/>
    <trip id="87" depart="352.90" from="e10" to="gneE9"/>
    <trip id="88" depart="356.95" from="e14" to="gneE12"/>
    <trip id="89" depart="361.01" from="e5" to="gneE11"/>
    <trip id="90" depart="365.06" from="e5" to="gneE12"/>
    <trip id="91" depart="369.12" from="gneE6" to="gneE2"/>
    <trip id="92" depart="373.18" from="gneE7" to="e3"/>
    <trip id="93" depart="377.23" from="gneE6" to="gneE11"/>
    <trip id="94" depart="381.29" from="gneE5" to="e14"/>
    <trip id="95" depart="385.35" from="e7" to="e3"/>
    <trip id="96" depart="389.40" from="gneE12" to="gneE12"/>
    <trip id="97" depart="393.46" from="gneE12" to="e3"/>
    <trip id="98" depart="397.51" from="gneE8" to="e7"/>
    <trip id="99" depart="401.57" from="e3" to="e9"/>
    <trip id="100" depart="405.63" from="gneE5" to="gneE4"/>
    <trip id="101" depart="409.68" from="gneE2" to="gneE1"/>
    <trip id="102" depart="413.74" from="e10" to="e5"/>
    <trip id="103" depart="417.80" from="gneE10" to="gneE4"/>
    <trip id="104" depart="421.85" from="gneE9" to="gneE5"/>
    <trip id="105" depart="425.91" from="gneE7" to="e6"/>
    <trip id="106" depart="429.96" from="gneE9" to="e11"/>
    <trip id="107" depart="434.02" from="gneE3" to="e6"/>
    <trip id="108" depart="438.08" from="e5" to="gneE12"/>
    <trip id="109" depart="442.13" from="e5" to="e8"/>
    <trip id="110" depart="446.19" from="gneE6" to="gneE12"/>
    <trip id="111" depart="450.25" from="gneE2" to="gneE12"/>
    <trip id="112" depart="454.30" from="gneE4" to="gneE7"/>
    <trip id="113" depart="458.36" from="gneE6" to="gneE4"/>
    <trip id="114" depart="462.41" from="gneE5" to="e12"/>
    <trip id="115" depart="466.47" from="e2" to="e6"/>
    <trip id="116" depart="470.53" from="e2" to="e2"/>
    <trip id="117" depart="474.58" from="gneE11" to="gneE12"/>
    <trip id="118" depart="478.64" from="gneE7" to="gneE2"/>
    <trip id="119" depart="482.70" from="gneE12" to="e14"/>
    <trip id="120" depart="486.75" from="gneE3" to="gneE2"/>
    <trip id="121" depart="490.81" from="gneE6" to="e13"/>
    <trip id="122" depart="494.86" from="e5" to="gneE8"/>
    <trip id="123" depart="498.92" from="gneE2" to="e3"/>
    <trip id="124" depart="502.98" from="gneE3" to="gneE1"/>
    <trip id="125" depart="507.03" from="e10" to="gneE9"/>
    <trip id="126" depart="511.09" from="e10" to="gneE9"/>
    <trip id="127" depart="515.15" from="e14" to="gneE9"/>
    <trip id="128" depart="519.20" from="gneE11" to="gneE11"/>
    <trip id="129" depart="523.26" from="gneE12" to="gneE12"/>
    <trip id="130" depart="527.32" from="gneE7" to="e12"/>
    <trip id="131" depart="531.37" from="e3" to="gneE3"/>
    <trip id="132" depart="535.43" from="gneE4" to="gneE1"/>
    <trip id="133" depart="539.48" from="gneE2" to="e2"/>
    <trip id="134" depart="543.54" from="gneE11" to="e8"/>
    <trip id="135" depart="547.60" from="e5" to="e9"/>
    <trip id="136" depart="551.65" from="gneE3" to="gneE8"/>
    <trip id="137" depart="555.71" from="gneE6" to="e2"/>
    <trip id="138" depart="559.77" from="gneE6" to="e6"/>
    <trip id="139" depart="563.82" from="gneE3" to="gneE10"/>
    <trip id="140" depart="567.88" from="gneE10" to="e8"/>
    <trip id="141" depart="571.93" from="e11" to="e9"/>
    <trip id="142" depart="575.99" from="gneE12" to="e12"/>
    <trip id="143" depart="580.05" from="e8" to="e3"/>
    <trip id="144" depart="584.10" from="gneE11" to="e7"/>
    <trip id="145" depart="588.16" from="e2" to="gneE4"/>
    <trip id="146" depart="592.22" from="gneE1" to="gneE5"/>
    <trip id="147" depart="596.27" from="e7" to="e10"/>
    <trip id="148" depart="600.33" from="e2" to="e8"/>
    <trip id="149" depart="604.38" from="gneE11" to="e9"/>
    <trip id="150" depart="608.44" from="e5" to="e3"/>
    <trip id="151" depart="612.50" from="e8" to="gneE10"/>
    <trip id="152" depart="616.55" from="gneE4" to="e7"/>
    <trip id="153" depart="620.61" from="gneE3" to="e3"/>
    <trip id="154" depart="624.67" from="e5" to="e7"/>
    <trip id="155" depart="628.72" from="gneE2" to="gneE1"/>
    <trip id="156" depart="632.78" from="e7" to="e2"/>
    <trip id="157" depart="636.83" from="e12" to="e3"/>
    <trip id="158" depart="640.89" from="gneE6" to="gneE8"/>
    <trip id="159" depart="644.95" from="e5" to="gneE2"/>
    <trip id="160" depart="649.00" from="e14" to="gneE12"/>
    <trip id="161" depart="653.06" from="gneE5" to="e12"/>
    <trip id="162" depart="657.12" from="gneE11" to="e8"/>
    <trip id="163" depart="661.17" from="gneE2" to="e9"/>
    <trip id="164" depart="665.23" from="gneE10" to="gneE1"/>
    <trip id="165" depart="669.28" from="gneE2" to="gneE9"/>
    <trip id="166" depart="673.34" from="gneE5" to="gneE8"/>
    <trip id="167" depart="677.40" from="gneE10" to="e11"/>
    <trip id="168" depart="681.45" from="e9" to="gneE4"/>
    <trip id="169" depart="685.51" from="gneE10" to="gneE9"/>
    <trip id="170" depart="689.57" from="gneE11" to="gneE6"/>
    <trip id="171" depart="693.62" from="gneE3" to="e2"/>
    <trip id="172" depart="697.68" from="gneE5" to="gneE6"/>
    <trip id="173" depart="701.73" from="e8" to="gneE9"/>
    <trip id="174" depart="705.79" from="gneE10" to="gneE7"/>
    <trip id="175" depart="709.85" from="e10" to="e13"/>
    <trip id="176" depart="713.90" from="gneE12" to="e8"/>
    <trip id="177" depart="717.96" from="e5" to="gneE8"/>
    <trip id="178" depart="722.02" from="gneE11" to="e5"/>
    <trip id="179" depart="726.07" from="e5" to="gneE3"/>
    <trip id="180" depart="730.13" from="gneE8" to="gneE4"/>
    <trip id="181" depart="734.18" from="gneE8" to="e12"/>
    <trip id="182" depart="738.24" from="e11" to="e3"/>
    <trip id="183" depart="742.30" from="e6" to="gneE5"/>
    <trip id="184" depart="746.35" from="e9" to="gneE4"/>
    <trip id="185" depart="750.41" from="e3" to="e13"/>
    <trip id="186" depart="754.47" from="gneE1" to="e3"/>
    <trip id="187" depart="758.52" from="gneE6" to="e13"/>
    <trip id="188" depart="762.58" from="e12" to="e11"/>
    <trip id="189" depart="766.64" from="gneE6" to="e2"/>
    <trip id="190" depart="770.69" from="e7" to="gneE3"/>
    <trip id="191" depart="774.75" from="e6" to="gneE11"/>
    <trip id="192" depart="778.80" from="e14" to="e11"/>
    <trip id="193" depart="782.86" from="gneE2" to="e2"/>
    <trip id="194" depart="786.92" from="gneE1" to="gneE8"/>
    <trip id="195" depart="790.97" from="gneE6" to="gneE11"/>
    <trip id="196" depart="795.03" from="e10" to="e14"/>
    <trip id="197" depart="799.09" from="e12" to="gneE5"/>
    <trip id="198" depart="803.14" from="gneE12" to="gneE5"/>
    <trip id="199" depart="807.20" from="gneE10" to="gneE9"/>
    <trip id="200" depart="811.25" from="gneE1" to="e13"/>
    <trip id="201" depart="815.31" from="gneE8" to="gneE7"/>
    <trip id="202" depart="819.37" from="e3" to="e9"/>
    <trip id="203" depart="823.42" from="gneE5" to="gneE7"/>
    <trip id="204" depart="827.48" from="e11" to="gneE5"/>
    <trip id="205" depart="831.54" from="e5" to="gneE3"/>
    <trip id="206" depart="835.59" from="e11" to="gneE11"/>
    <trip id="207" depart="839.65" from="e8" to="gneE7"/>
    <trip id="208" depart="843.70" from="e11" to="e3"/>
    <trip id="209" depart="847.76" from="e13" to="gneE3"/>
    <trip id="210" depart="851.82" from="gneE6" to="e9"/>
    <trip id="211" depart="855.87" from="e5" to="gneE4"/>
    <trip id="212" depart="859.93" from="e11" to="gneE11"/>
    <trip id="213" depart="863.99" from="e5" to="e14"/>
    <trip id="214" depart="868.04" from="e2" to="e6"/>
    <trip id="215" depart="872.10" from="e9" to="e13"/>
    <trip id="216" depart="876.15" from="gneE5" to="gneE10"/>
    <trip id="217" depart="880.21" from="gneE10" to="e8"/>
    <trip id="218" depart="884.27" from="gneE10" to="gneE5"/>
    <trip id="219" depart="888.32" from="gneE8" to="gneE2"/>
    <trip id="220" depart="892.38" from="e10" to="gneE7"/>
    <trip id="221" depart="896.44" from="e6" to="e2"/>
    <trip id="222" depart="900.49" from="e2" to="e8"/>
    <trip id="223" depart="904.55" from="e7" to="gneE12"/>
    <trip id="224" depart="908.60" from="gneE8" to="e14"/>
    <trip id="225" depart="912.66" from="e3" to="gneE12"/>
    <trip id="226" depart="916.72" from="gneE6" to="gneE10"/>
    <trip id="227" depart="920.77" from="e10" to="e13"/>
    <trip id="228" depart="924.83" from="e14" to="gneE3"/>
    <trip id="229" depart="928.89" from="e6" to="gneE4"/>
    <trip id="230" depart="932.94" from="gneE7" to="e2"/>
    <trip id="231" depart="937.00" from="e5" to="e9"/>
    <trip id="232" depart="941.05" from="e11" to="gneE6"/>
    <trip id="233" depart="945.11" from="e7" to="gneE2"/>
    <trip id="234" depart="949.17" from="gneE1" to="gneE2"/>
    <trip id="235" depart="953.22" from="gneE3" to="gneE5"/>
    <trip id="236" depart="957.28" from="e3" to="gneE9"/>
    <trip id="237" depart="961.34" from="e13" to="gneE11"/>
    <trip id="238" depart="965.39" from="gneE6" to="gneE4"/>
    <trip id="239" depart="969.45" from="e12" to="e14"/>
    <trip id="240" depart="973.50" from="e14" to="e14"/>
    <trip id="241" depart="977.56" from="e14" to="gneE12"/>
    <trip id="242" depart="981.62" from="gneE12" to="e14"/>
    <trip id="243" depart="985.67" from="e5" to="gneE2"/>
    <trip id="244" depart="989.73" from="e14" to="gneE4"/>
    <trip id="245" depart="993.79" from="e12" to="e8"/>
    <trip id="246" depart="997.84" from="gneE12" to="gneE3"/>
    <trip id="247" depart="1001.90" from="gneE4" to="gneE4"/>
    <trip id="248" depart="1005.95" from="gneE1" to="gneE8"/>
    <trip id="249" depart="1010.01" from="gneE6" to="gneE11"/>
    <trip id="250" depart="1014.07" from="gneE7" to="e6"/>
    <trip id="251" depart="1018.12" from="gneE9" to="e3"/>
    <trip id="252" depart="1022.18" from="gneE12" to="gneE4"/>
    <trip id="253" depart="1026.24" from="gneE5" to="e2"/>
    <trip id="254" depart="1030.29" from="gneE5" to="gneE2"/>
    <trip id="255" depart="1034.35" from="e7" to="gneE6"/>
    <trip id="256" depart="1038.41" from="gneE11" to="gneE2"/>
    <trip id="257" depart="1042.46" from="e6" to="e2"/>
    <trip id="258" depart="1046.52" from="gneE11" to="e10"/>
    <trip id="259" depart="1050.57" from="gneE6" to="gneE9"/>
    <trip id="260" depart="1054.63" from="e2" to="gneE11"/>
    <trip id="261" depart="1058.69" from="gneE1" to="gneE10"/>
    <trip id="262" depart="1062.74" from="gneE7" to="gneE11"/>
    <trip id="263" depart="1066.80" from="gneE4" to="e10"/>
    <trip id="264" depart="1070.86" from="gneE8" to="gneE10"/>
    <trip id="265" depart="1074.91" from="e7" to="gneE9"/>
    <trip id="266" depart="1078.97" from="gneE2" to="e9"/>
    <trip id="267" depart="1083.02" from="gneE11" to="gneE8"/>
    <trip id="268" depart="1087.08" from="e2" to="gneE5"/>
    <trip id="269" depart="1091.14" from="gneE12" to="gneE12"/>
    <trip id="270" depart="1095.19" from="gneE10" to="e11"/>
    <trip id="271" depart="1099.25" from="gneE3" to="gneE7"/>
    <trip id="272" depart="1103.31" from="e13" to="e12"/>
    <trip id="273" depart="1107.36" from="e9" to="gneE5"/>
    <trip id="274" depart="1111.42" from="e6" to="e8"/>
    <trip id="275" depart="1115.47" from="e6" to="e5"/>
    <trip id="276" depart="1119.53" from="e13" to="gneE1"/>
    <trip id="277" depart="1123.59" from="gneE10" to="e7"/>
    <trip id="278" depart="1127.64" from="gneE1" to="gneE10"/>
    <trip id="279" depart="1131.70" from="e6" to="gneE8"/>
    <trip id="280" depart="1135.76" from="e11" to="gneE8"/>
    <trip id="281" depart="1139.81" from="gneE1" to="gneE6"/>
    <trip id="282" depart="1143.87" from="gneE6" to="gneE1"/>
    <trip id="283" depart="1147.92" from="e2" to="e7"/>
    <trip id="284" depart="1151.98" from="e7" to="e9"/>
    <trip id="285" depart="1156.04" from="e14" to="e2"/>
    <trip id="286" depart="1160.09" from="e13" to="gneE9"/>
    <trip id="287" depart="1164.15" from="e2" to="gneE8"/>
    <trip id="288" depart="1168.21" from="gneE9" to="gneE5"/>
    <trip id="289" depart="1172.26" from="e2" to="e10"/>
    <trip id="290" depart="1176.32" from="e3" to="gneE12"/>
    <trip id="291" depart="1180.37" from="e14" to="e3"/>
    <trip id="292" depart="1184.43" from="gneE2" to="e13"/>
    <trip id="293" depart="1188.49" from="gneE9" to="e3"/>
    <trip id="294" depart="1192.54" from="e11" to="e10"/>
    <trip id="295" depart="1196.60" from="e11" to="e14"/>
    <trip id="296" depart="1200.66" from="gneE6" to="e2"/>
    <trip id="297" depart="1204.71" from="e2" to="e5"/>
    <trip id="298" depart="1208.77" from="gneE9" to="e11"/>
    <trip id="299" depart="1212.82" from="gneE9" to="gneE4"/>
    <trip id="300" depart="1216.88" from="e7" to="e11"/>
    <trip id="301" depart="1220.94" from="e13" to="gneE7"/>
    <trip id="302" depart="1224.99" from="gneE2" to="gneE11"/>
    <trip id="303" depart="1229.05" from="gneE9" to="e9"/>
    <trip id="304" depart="1233.11" from="gneE7" to="gneE12"/>
    <trip id="305" depart="1237.16" from="e6" to="gneE9"/>
    <trip id="306" depart="1241.22" from="e8" to="e8"/>
    <trip id="307" depart="1245.27" from="gneE12" to="gneE2"/>
    <trip id="308" depart="1249.33" from="e2" to="gneE5"/>
    <trip id="309" depart="1253.39" from="e12" to="e5"/>
    <trip id="310" depart="1257.44" from="gneE9" to="gneE4"/>
    <trip id="311" depart="1261.50" from="gneE10" to="e14"/>
    <trip id="312" depart="1265.56" from="e11" to="e9"/>
    <trip id="313" depart="1269.61" from="e8" to="gneE5"/>
    <trip id="314" depart="1273.67" from="gneE4" to="gneE11"/>
    <trip id="315" depart="1277.73" from="e7" to="gneE1"/>
    <trip id="316" depart="1281.78" from="e2" to="gneE2"/>
    <trip id="317" depart="1285.84" from="e13" to="e13"/>
    <trip id="318" depart="1289.89" from="e13" to="gneE11"/>
    <trip id="319" depart="1293.95" from="e12" to="gneE1"/>
    <trip id="320" depart="1298.01" from="e14" to="gneE12"/>
    <trip id="321" depart="1302.06" from="e9" to="e3"/>
    <trip id="322" depart="1306.12" from="e2" to="gneE10"/>
    <trip id="323" depart="1310.18" from="gneE8" to="gneE3"/>
    <trip id="324" depart="1314.23" from="gneE10" to="gneE2"/>
    <trip id="325" depart="1318.29" from="e2" to="gneE8"/>
    <trip id="326" depart="1322.34" from="e14" to="e11"/>
    <trip id="327" depart="1326.40" from="e13" to="e2"/>
    <trip id="328" depart="1330.46" from="gneE5" to="gneE12"/>
    <trip id="329" depart="1334.51" from="gneE5" to="gneE2"/>
    <trip id="330" depart="1338.57" from="e6" to="e5"/>
    <trip id="331" depart="1342.63" from="gneE5" to="e11"/>
    <trip id="332" depart="1346.68" from="gneE8" to="e6"/>
    <trip id="333" depart="1350.74" from="gneE7" to="e8"/>
    <trip id="334" depart="1354.79" from="gneE5" to="gneE5"/>
    <trip id="335" depart="1358.85" from="gneE6" to="gneE9"/>
    <trip id="336" depart="1362.91" from="gneE10" to="gneE2"/>
    <trip id="337" depart="1366.96" from="e6" to="e14"/>
    <trip id="338" depart="1371.02" from="e7" to="gneE9"/>
    <trip id="339" depart="1375.08" from="e13" to="gneE4"/>
    <trip id="340" depart="1379.13" from="gneE11" to="gneE10"/>
    <trip id="341" depart="1383.19" from="gneE9" to="gneE1"/>
    <trip id="342" depart="1387.24" from="e6" to="gneE3"/>
    <trip id="343" depart="1391.30" from="gneE4" to="gneE8"/>
    <trip id="344" depart="1395.36" from="gneE1" to="e12"/>
    <trip id="345" depart="1399.41" from="gneE2" to="gneE3"/>
    <trip id="346" depart="1403.47" from="gneE11" to="gneE12"/>
    <trip id="347" depart="1407.53" from="gneE4" to="gneE2"/>
    <trip id="348" depart="1411.58" from="gneE12" to="e11"/>
    <trip id="349" depart="1415.64" from="e7" to="gneE5"/>
    <trip id="350" depart="1419.69" from="gneE12" to="gneE11"/>
    <trip id="351" depart="1423.75" from="e12" to="e12"/>
    <trip id="352" depart="1427.81" from="e9" to="gneE6"/>
    <trip id="353" depart="1431.86" from="e9" to="gneE7"/>
    <trip id="354" depart="1435.92" from="e8" to="gneE1"/>
    <trip id="355" depart="1439.98" from="e8" to="gneE5"/>
    <trip id="356" depart="1444.03" from="e9" to="gneE12"/>
    <trip id="357" depart="1448.09" from="e5" to="e9"/>
    <trip id="358" depart="1452.14" from="e2" to="e5"/>
    <trip id="359" depart="1456.20" from="e14" to="e13"/>
    <trip id="360" depart="1460.26" from="e8" to="e14"/>
    <trip id="361" depart="1464.31" from="e8" to="e5"/>
    <trip id="362" depart="1468.37" from="gneE9" to="gneE3"/>
    <trip id="363" depart="1472.43" from="gneE2" to="gneE12"/>
    <trip id="364" depart="1476.48" from="gneE5" to="gneE3"/>
    <trip id="365" depart="1480.54" from="e9" to="gneE12"/>
    <trip id="366" depart="1484.59" from="gneE1" to="gneE2"/>
    <trip id="367" depart="1488.65" from="gneE9" to="gneE7"/>
    <trip id="368" depart="1492.71" from="e5" to="e10"/>
    <trip id="369" depart="1496.76" from="e13" to="gneE6"/>
    <trip id="370" depart="1500.82" from="e5" to="e5"/>
    <trip id="371" depart="1504.88" from="gneE9" to="e7"/>
    <trip id="372" depart="1508.93" from="gneE4" to="e2"/>
    <trip id="373" depart="1512.99" from="gneE7" to="e7"/>
    <trip id="374" depart="1517.05" from="e9" to="e14"/>
    <trip id="375" depart="1521.10" from="gneE3" to="gneE10"/>
    <trip id="376" depart="1525.16" from="gneE1" to="gneE5"/>
    <trip id="377" depart="1529.21" from="gneE11" to="gneE5"/>
    <trip id="378" depart="1533.27" from="e2" to="gneE6"/>
    <trip id="379" depart="1537.33" from="gneE2" to="e5"/>
    <trip id="380" depart="1541.38" from="gneE4" to="gneE4"/>
    <trip id="381" depart="1545.44" from="e3" to="e8"/>
    <trip id="382" depart="1549.50" from="gneE4" to="e6"/>
    <trip id="383" depart="1553.55" from="gneE1" to="e12"/>
    <trip id="384" depart="1557.61" from="e5" to="gneE4"/>
    <trip id="385" depart="1561.66" from="e13" to="e5"/>
    <trip id="386" depart="1565.72" from="gneE7" to="gneE2"/>
    <trip id="387" depart="1569.78" from="e12" to="gneE6"/>
    <trip id="388" depart="1573.83" from="e5" to="gneE3"/>
    <trip id="389" depart="1577.89" from="e9" to="e6"/>
    <trip id="390" depart="1581.95" from="gneE2" to="e2"/>
    <trip id="391" depart="1586.00" from="gneE6" to="e14"/>
    <trip id="392" depart="1590.06" from="e6" to="e5"/>
    <trip id="393" depart="1594.11" from="e8" to="e11"/>
    <trip id="394" depart="1598.17" from="e7" to="gneE5"/>
    <trip id="395" depart="1602.23" from="gneE3" to="gneE9"/>
    <trip id="396" depart="1606.28" from="gneE9" to="e11"/>
    <trip id="397" depart="1610.34" from="e3" to="gneE1"/>
    <trip id="398" depart="1614.40" from="e6" to="gneE1"/>
    <trip id="399" depart="1618.45" from="e9" to="gneE4"/>
    <trip id="400" depart="1622.51" from="e5" to="gneE3"/>
    <trip id="401" depart="1626.56" from="e10" to="gneE9"/>
    <trip id="402" depart="1630.62" from="gneE5" to="e8"/>
    <trip id="403" depart="1634.68" from="e10" to="e11"/>
    <trip id="404" depart="1638.73" from="gneE1" to="gneE9"/>
    <trip id="405" depart="1642.79" from="e7" to="gneE2"/>
    <trip id="406" depart="1646.85" from="gneE3" to="gneE1"/>
    <trip id="407" depart="1650.90" from="e3" to="e8"/>
    <trip id="408" depart="1654.96" from="gneE6" to="gneE11"/>
    <trip id="409" depart="1659.01" from="e10" to="e6"/>
    <trip id="410" depart="1663.07" from="e12" to="gneE1"/>
    <trip id="411" depart="1667.13" from="e12" to="gneE1"/>
    <trip id="412" depart="1671.18" from="gneE12" to="e9"/>
    <trip id="413" depart="1675.24" from="e10" to="gneE9"/>
    <trip id="414" depart="1679.30" from="gneE2" to="e5"/>
    <trip id="415" depart="1683.35" from="gneE10" to="gneE7"/>
    <trip id="416" depart="1687.41" from="e14" to="e10"/>
    <trip id="417" depart="1691.46" from="gneE4" to="gneE4"/>
    <trip id="418" depart="1695.52" from="gneE5" to="e14"/>
    <trip id="419" depart="1699.58" from="e11" to="gneE12"/>
    <trip id="420" depart="1703.63" from="e3" to="e7"/>
    <trip id="421" depart="1707.69" from="gneE4" to="gneE12"/>
    <trip id="422" depart="1711.75" from="gneE12" to="gneE6"/>
    <trip id="423" depart="1715.80" from="gneE6" to="e14"/>
    <trip id="424" depart="1719.86" from="e13" to="gneE4"/>
    <trip id="425" depart="1723.91" from="gneE10" to="gneE11"/>
    <trip id="426" depart="1727.97" from="gneE12" to="gneE12"/>
    <trip id="427" depart="1732.03" from="gneE5" to="e8"/>
    <trip id="428" depart="1736.08" from="gneE11" to="e9"/>
    <trip id="429" depart="1740.14" from="e14" to="e10"/>
    <trip id="430" depart="1744.20" from="e13" to="gneE8"/>
    <trip id="431" depart="1748.25" from="gneE3" to="gneE2"/>
    <trip id="432" depart="1752.31" from="e10" to="e5"/>
    <trip id="433" depart="1756.36" from="e3" to="gneE12"/>
    <trip id="434" depart="1760.42" from="gneE9" to="e5"/>
    <trip id="435" depart="1764.48" from="gneE1" to="gneE10"/>
    <trip id="436" depart="1768.53" from="e8" to="gneE7"/>
    <trip id="437" depart="1772.59" from="e6" to="gneE7"/>
    <trip id="438" depart="1776.65" from="gneE10" to="gneE8"/>
    <trip id="439" depart="1780.70" from="e13" to="gneE5"/>
    <trip id="440" depart="1784.76" from="e12" to="gneE8"/>
    <trip id="441" depart="1788.82" from="gneE8" to="e12"/>
    <trip id="442" depart="1792.87" from="e13" to="e13"/>
    <trip id="443" depart="1796.93" from="e14" to="gneE2"/>
    <trip id="444" depart="1800.98" from="gneE5" to="gneE3"/>
    <trip id="445" depart="1805.04" from="gneE7" to="gneE2"/>
    <trip id="446" depart="1809.10" from="e6" to="e9"/>
    <trip id="447" depart="1813.15" from="e9" to="e14"/>
    <trip id="448" depart="1817.21" from="gneE12" to="e11"/>
    <trip id="449" depart="1821.27" from="gneE11" to="gneE4"/>
    <trip id="450" depart="1825.32" from="gneE9" to="gneE10"/>
    <trip id="451" depart="1829.38" from="gneE5" to="e14"/>
    <trip id="452" depart="1833.43" from="e11" to="gneE4"/>
    <trip id="453" depart="1837.49" from="e10" to="e8"/>
    <trip id="454" depart="1841.55" from="e2" to="e14"/>
    <trip id="455" depart="1845.60" from="e7" to="gneE7"/>
    <trip id="456" depart="1849.66" from="gneE7" to="e12"/>
    <trip id="457" depart="1853.72" from="e10" to="e7"/>
    <trip id="458" depart="1857.77" from="gneE10" to="e10"/>
    <trip id="459" depart="1861.83" from="e6" to="e13"/>
    <trip id="460" depart="1865.88" from="gneE5" to="gneE5"/>
    <trip id="461" depart="1869.94" from="e6" to="gneE10"/>
    <trip id="462" depart="1874.00" from="gneE6" to="e8"/>
    <trip id="463" depart="1878.05" from="e14" to="e6"/>
    <trip id="464" depart="1882.11" from="e9" to="gneE5"/>
    <trip id="465" depart="1886.17" from="e13" to="gneE2"/>
    <trip id="466" depart="1890.22" from="gneE10" to="e6"/>
    <trip id="467" depart="1894.28" from="e7" to="gneE8"/>
    <trip id="468" depart="1898.33" from="gneE4" to="gneE3"/>
    <trip id="469" depart="1902.39" from="e6" to="gneE10"/>
    <trip id="470" depart="1906.45" from="gneE12" to="gneE8"/>
    <trip id="471" depart="1910.50" from="e7" to="e8"/>
    <trip id="472" depart="1914.56" from="e14" to="gneE11"/>
    <trip id="473" depart="1918.62" from="e13" to="gneE11"/>
    <trip id="474" depart="1922.67" from="gneE10" to="gneE8"/>
    <trip id="475" depart="1926.73" from="gneE5" to="gneE2"/>
    <trip id="476" depart="1930.78" from="gneE10" to="e8"/>
    <trip id="477" depart="1934.84" from="gneE2" to="gneE12"/>
    <trip id="478" depart="1938.90" from="gneE3" to="e11"/>
    <trip id="479" depart="1942.95" from="gneE12" to="e12"/>
    <trip id="480" depart="1947.01" from="e2" to="gneE12"/>
    <trip id="481" depart="1951.07" from="e5" to="e6"/>
    <trip id="482" depart="1955.12" from="gneE11" to="e11"/>
    <trip id="483" depart="1959.18" from="gneE4" to="e8"/>
    <trip id="484" depart="1963.23" from="gneE12" to="e9"/>
    <trip id="485" depart="1967.29" from="e2" to="e10"/>
    <trip id="486" depart="1971.35" from="gneE9" to="e13"/>
    <trip id="487" depart="1975.40" from="gneE1" to="e2"/>
    <trip id="488" depart="1979.46" from="gneE2" to="e12"/>
    <trip id="489" depart="1983.52" from="gneE8" to="e12"/>
    <trip id="490" depart="1987.57" from="e13" to="e14"/>
    <trip id="491" depart="1991.63" from="e10" to="e7"/>
    <trip id="492" depart="1995.68" from="gneE5" to="gneE9"/>
    <trip id="493" depart="1999.74" from="e9" to="e2"/>
    <trip id="494" depart="2003.80" from="gneE7" to="gneE6"/>
    <trip id="495" depart="2007.85" from="e13" to="e6"/>
    <trip id="496" depart="2011.91" from="e8" to="e2"/>
    <trip id="497" depart="2015.97" from="e10" to="e11"/>
    <trip id="498" depart="2020.02" from="gneE4" to="gneE1"/>
    <trip id="499" depart="2024.08" from="e12" to="gneE4"/>
    <trip id="500" depart="2028.14" from="e8" to="e9"/>
    <trip id="501" depart="2032.19" from="e2" to="gneE10"/>
    <trip id="502" depart="2036.25" from="gneE4" to="gneE8"/>
    <trip id="503" depart="2040.30" from="gneE10" to="gneE9"/>