<?xml version="1.0" encoding="UTF-8"?>
<!-- generated on 2020-12-22 01:53:16.483375 by $Id$ UNKNOWN
  options: 
-->
<routes xmlns:xsi="http://www.w3.org/2001/XMLSchema-instance" xsi:noNamespaceSchemaLocation="http://sumo.dlr.de/xsd/routes_file.xsd">
    <trip id="0" depart="0.00" from="e9" to="e8"/>
    <trip id="1" depart="2.58" from="e9" to="gneE11"/>
    <trip id="2" depart="5.16" from="e8" to="gneE3"/>
    <trip id="3" depart="7.74" from="gneE2" to="e5"/>
    <trip id="4" depart="10.32" from="e10" to="e10"/>
    <trip id="5" depart="12.90" from="gneE3" to="gneE8"/>
    <trip id="6" depart="15.49" from="gneE8" to="gneE8"/>
    <trip id="7" depart="18.07" from="e7" to="e11"/>
    <trip id="8" depart="20.65" from="gneE7" to="e2"/>
    <trip id="9" depart="23.23" from="gneE4" to="e6"/>
    <trip id="10" depart="25.81" from="e6" to="e8"/>
    <trip id="11" depart="28.39" from="gneE3" to="gneE2"/>
    <trip id="12" depart="30.97" from="gneE12" to="gneE6"/>
    <trip id="13" depart="33.55" from="e10" to="gneE7"/>
    <trip id="14" depart="36.13" from="e13" to="gneE5"/>
    <trip id="15" depart="38.71" from="gneE3" to="e2"/>
    <trip id="16" depart="41.29" from="e3" to="gneE12"/>
    <trip id="17" depart="43.88" from="gneE9" to="e10"/>
    <trip id="18" depart="46.46" from="e2" to="e11"/>
    <trip id="19" depart="49.04" from="e10" to="gneE11"/>
    <trip id="20" depart="51.62" from="gneE4" to="e6"/>
    <trip id="21" depart="54.20" from="e9" to="gneE2"/>
    <trip id="22" depart="56.78" from="gneE10" to="e10"/>
    <trip id="23" depart="59.36" from="gneE7" to="e6"/>
    <trip id="24" depart="61.94" from="e12" to="e6"/>
    <trip id="25" depart="64.52" from="e14" to="e9"/>
    <trip id="26" depart="67.10" from="e6" to="e9"/>
    <trip id="27" depart="69.68" from="gneE9" to="e10"/>
    <trip id="28" depart="72.27" from="e2" to="gneE2"/>
    <trip id="29" depart="74.85" from="e12" to="e14"/>
    <trip id="30" depart="77.43" from="gneE2" to="e11"/>
    <trip id="31" depart="80.01" from="gneE7" to="e6"/>
    <trip id="32" depart="82.59" from="e14" to="e12"/>
    <trip id="33" depart="85.17" from="e9" to="e8"/>
    <trip id="34" depart="87.75" from="e13" to="gneE4"/>
    <trip id="35" depart="90.33" from="gneE4" to="gneE7"/>
    <trip id="36" depart="92.91" from="e2" to="gneE9"/>
    <trip id="37" depart="95.49" from="e12" to="gneE10"/>
    <trip id="38" depart="98.07" from="e3" to="e6"/>
    <trip id="39" depart="100.66" from="gneE10" to="e12"/>
    <trip id="40" depart="103.24" from="e5" to="e10"/>
    <trip id="41" depart="105.82" from="e13" to="gneE4"/>
    <trip id="42" depart="108.40" from="e7" to="gneE10"/>
    <trip id="43" depart="110.98" from="gneE11" to="gneE3"/>
    <trip id="44" depart="113.56" from="e7" to="gneE4"/>
    <trip id="45" depart="116.14" from="gneE5" to="gneE4"/>
    <trip id="46" depart="118.72" from="gneE11" to="gneE6"/>
    <trip id="47" depart="121.30" from="e2" to="gneE1"/>
    <trip id="48" depart="123.88" from="e3" to="gneE6"/>
    <trip id="49" depart="126.46" from="gneE5" to="e8"/>
    <trip id="50" depart="129.05" from="gneE3" to="e2"/>
    <trip id="51" depart="131.63" from="e7" to="gneE5"/>
    <trip id="52" depart="134.21" from="e14" to="gneE11"/>
    <trip id="53" depart="136.79" from="gneE8" to="gneE6"/>
    <trip id="54" depart="139.37" from="e14" to="gneE12"/>
    <trip id="55" depart="141.95" from="gneE4" to="gneE3"/>
    <trip id="56" depart="144.53" from="gneE12" to="gneE9"/>
    <trip id="57" depart="147.11" from="e3" to="e11"/>
    <trip id="58" depart="149.69" from="gneE1" to="gneE2"/>
    <trip id="59" depart="152.27" from="e9" to="e12"/>
    <trip id="60" depart="154.85" from="e6" to="gneE4"/>
    <trip id="61" depart="157.44" from="e7" to="gneE5"/>
    <trip id="62" depart="160.02" from="e2" to="e2"/>
    <trip id="63" depart="162.60" from="gneE10" to="e13"/>
    <trip id="64" depart="165.18" from="e13" to="gneE1"/>
    <trip id="65" depart="167.76" from="gneE8" to="e10"/>
    <trip id="66" depart="170.34" from="gneE6" to="e3"/>
    <trip id="67" depart="172.92" from="gneE3" to="gneE1"/>
    <trip id="68" depart="175.50" from="gneE8" to="e2"/>
    <trip id="69" depart="178.08" from="e13" to="e13"/>
    <trip id="70" depart="180.66" from="e10" to="e14"/>
    <trip id="71" depart="183.24" from="e7" to="gneE11"/>
    <trip id="72" depart="185.82" from="gneE12" to="e13"/>
    <trip id="73" depart="188.41" from="e7" to="e6"/>
    <trip id="74" depart="190.99" from="e10" to="gneE8"/>
    <trip id="75" depart="193.57" from="gneE10" to="gneE12"/>
    <trip id="76" depart="196.15" from="e8" to="e11"/>
    <trip id="77" depart="198.73" from="gneE2" to="gneE11"/>
    <trip id="78" depart="201.31" from="gneE7" to="gneE6"/>
    <trip id="79" depart="203.89" from="gneE8" to="e8"/>
    <trip id="80" depart="206.47" from="e8" to="gneE5"/>
    <trip id="81" depart="209.05" from="e10" to="e10"/>
    <trip id="82" depart="211.63" from="gneE12" to="e10"/>
    <trip id="83" depart="214.21" from="e6" to="e2"/>
    <trip id="84" depart="216.80" from="gneE6" to="gneE10"/>
    <trip id="85" depart="219.38" from="e9" to="gneE5"/>
    <trip id="86" depart="221.96" from="gneE7" to="e7"/>
    <trip id="87" depart="224.54" from="e6" to="gneE4"/>
    <trip id="88" depart="227.12" from="gneE10" to="gneE1"/>
    <trip id="89" depart="229.70" from="e12" to="e14"/>
    <trip id="90" depart="232.28" from="gneE10" to="gneE9"/>
    <trip id="91" depart="234.86" from="e6" to="e11"/>
    <trip id="92" depart="237.44" from="e10" to="gneE8"/>
    <trip id="93" depart="240.02" from="e12" to="gneE3"/>
    <trip id="94" depart="242.60" from="e6" to="gneE10"/>
    <trip id="95" depart="245.19" from="e5" to="gneE7"/>
    <trip id="96" depart="247.77" from="e11" to="e8"/>
    <trip id="97" depart="250.35" from="gneE1" to="gneE12"/>
    <trip id="98" depart="252.93" from="gneE2" to="gneE5"/>
    <trip id="99" depart="255.51" from="e3" to="e10"/>
    <trip id="100" depart="258.09" from="gneE1" to="gneE3"/>
    <trip id="101" depart="260.67" from="gneE9" to="gneE6"/>
    <trip id="102" depart="263.25" from="gneE11" to="gneE12"/>
    <trip id="103" depart="265.83" from="gneE1" to="e6"/>
    <trip id="104" depart="268.41" from="e5" to="e8"/>
    <trip id="105" depart="270.99" from="gneE7" to="gneE10"/>
    <trip id="106" depart="273.58" from="gneE11" to="e14"/>
    <trip id="107" depart="276.16" from="gneE11" to="gneE2"/>
    <trip id="108" depart="278.74" from="e6" to="e3"/>
    <trip id="109" depart="281.32" from="e13" to="gneE3"/>
    <trip id="110" depart="283.90" from="e14" to="gneE11"/>
    <trip id="111" depart="286.48" from="e5" to="gneE6"/>
    <trip id="112" depart="289.06" from="e5" to="e12"/>
    <trip id="113" depart="291.64" from="e2" to="gneE10"/>
    <trip id="114" depart="294.22" from="e13" to="gneE9"/>
    <trip id="115" depart="296.80" from="gneE2" to="gneE1"/>
    <trip id="116" depart="299.38" from="gneE8" to="e2"/>
    <trip id="117" depart="301.97" from="e8" to="gneE10"/>
    <trip id="118" depart="304.55" from="gneE8" to="e14"/>
    <trip id="119" depart="307.13" from="e6" to="gneE5"/>
    <trip id="120" depart="309.71" from="e9" to="e5"/>
    <trip id="121" depart="312.29" from="gneE12" to="gneE7"/>
    <trip id="122" depart="314.87" from="gneE10" to="e8"/>
    <trip id="123" depart="317.45" from="e7" to="e9"/>
    <trip id="124" depart="320.03" from="e11" to="gneE1"/>
    <trip id="125" depart="322.61" from="gneE4" to="e11"/>
    <trip id="126" depart="325.19" from="gneE2" to="gneE9"/>
    <trip id="127" depart="327.77" from="e13" to="e9"/>
    <trip id="128" depart="330.36" from="gneE6" to="e6"/>
    <trip id="129" depart="332.94" from="e14" to="e14"/>
    <trip id="130" depart="335.52" from="e12" to="e7"/>
    <trip id="131" depart="338.10" from="e12" to="gneE8"/>
    <trip id="132" depart="340.68" from="e14" to="gneE6"/>
    <trip id="133" depart="343.26" from="gneE6" to="gneE12"/>
    <trip id="134" depart="345.84" from="gneE5" to="gneE6"/>
    <trip id="135" depart="348.42" from="e8" to="e11"/>
    <trip id="136" depart="351.00" from="gneE9" to="e8"/>
    <trip id="137" depart="353.58" from="e10" to="gneE2"/>
    <trip id="138" depart="356.16" from="gneE4" to="gneE8"/>
    <trip id="139" depart="358.75" from="e9" to="gneE1"/>
    <trip id="140" depart="361.33" from="gneE10" to="e8"/>
    <trip id="141" depart="363.91" from="gneE11" to="e14"/>
    <trip id="142" depart="366.49" from="gneE8" to="gneE1"/>
    <trip id="143" depart="369.07" from="e2" to="gneE3"/>
    <trip id="144" depart="371.65" from="e6" to="gneE4"/>
    <trip id="145" depart="374.23" from="gneE8" to="gneE7"/>
    <trip id="146" depart="376.81" from="e11" to="gneE8"/>
    <trip id="147" depart="379.39" from="gneE3" to="e3"/>
    <trip id="148" depart="381.97" from="e7" to="gneE11"/>
    <trip id="149" depart="384.55" from="e3" to="gneE5"/>
    <trip id="150" depart="387.14" from="e9" to="gneE3"/>
    <trip id="151" depart="389.72" from="gneE10" to="gneE9"/>
    <trip id="152" depart="392.30" from="e13" to="gneE8"/>
    <trip id="153" depart="394.88" from="e3" to="e3"/>
    <trip id="154" depart="397.46" from="gneE10" to="gneE6"/>
    <trip id="155" depart="400.04" from="e10" to="gneE4"/>
    <trip id="156" depart="402.62" from="gneE5" to="e8"/>
    <trip id="157" depart="405.20" from="gneE3" to="gneE7"/>
    <trip id="158" depart="407.78" from="gneE5" to="e13"/>
    <trip id="159" depart="410.36" from="gneE10" to="gneE5"/>
    <trip id="160" depart="412.94" from="e14" to="gneE8"/>
    <trip id="161" depart="415.53" from="e2" to="gneE12"/>
    <trip id="162" depart="418.11" from="gneE10" to="gneE3"/>
    <trip id="163" depart="420.69" from="gneE10" to="gneE6"/>
    <trip id="164" depart="423.27" from="e12" to="e7"/>
    <trip id="165" depart="425.85" from="e8" to="gneE1"/>
    <trip id="166" depart="428.43" from="e2" to="e13"/>
    <trip id="167" depart="431.01" from="gneE3" to="gneE10"/>
    <trip id="168" depart="433.59" from="e10" to="e7"/>
    <trip id="169" depart="436.17" from="gneE4" to="e6"/>
    <trip id="170" depart="438.75" from="e11" to="e6"/>
    <trip id="171" depart="441.33" from="gneE12" to="e14"/>
    <trip id="172" depart="443.92" from="e7" to="gneE2"/>
    <trip id="173" depart="446.50" from="gneE7" to="e9"/>
    <trip id="174" depart="449.08" from="gneE5" to="gneE2"/>
    <trip id="175" depart="451.66" from="gneE4" to="e5"/>
    <trip id="176" depart="454.24" from="e14" to="e8"/>
    <trip id="177" depart="456.82" from="e3" to="gneE10"/>
    <trip id="178" depart="459.40" from="e6" to="e12"/>
    <trip id="179" depart="461.98" from="gneE3" to="gneE3"/>
    <trip id="180" depart="464.56" from="gneE2" to="e3"/>
    <trip id="181" depart="467.14" from="gneE3" to="e2"/>
    <trip id="182" depart="469.72" from="gneE3" to="e14"/>
    <trip id="183" depart="472.31" from="e11" to="gneE5"/>
    <trip id="184" depart="474.89" from="e6" to="e7"/>
    <trip id="185" depart="477.47" from="e13" to="e6"/>
    <trip id="186" depart="480.05" from="e8" to="gneE10"/>
    <trip id="187" depart="482.63" from="gneE3" to="e11"/>
    <trip id="188" depart="485.21" from="e14" to="e9"/>
    <trip id="189" depart="487.79" from="e13" to="e10"/>
    <trip id="190" depart="490.37" from="e14" to="gneE4"/>
    <trip id="191" depart="492.95" from="e6" to="gneE8"/>
    <trip id="192" depart="495.53" from="e8" to="gneE5"/>
    <trip id="193" depart="498.11" from="gneE8" to="e2"/>
    <trip id="194" depart="500.69" from="e14" to="gneE6"/>
    <trip id="195" depart="503.28" from="e10" to="e5"/>
    <trip id="196" depart="505.86" from="e12" to="e7"/>
    <trip id="197" depart="508.44" from="e12" to="e6"/>
    <trip id="198" depart="511.02" from="gneE4" to="gneE11"/>
    <trip id="199" depart="513.60" from="gneE7" to="e3"/>
    <trip id="200" depart="516.18" from="gneE2" to="gneE8"/>
    <trip id="201" depart="518.76" from="e6" to="e3"/>
    <trip id="202" depart="521.34" from="gneE9" to="e8"/>
    <trip id="203" depart="523.92" from="gneE5" to="e11"/>
    <trip id="204" depart="526.50" from="e6" to="gneE4"/>
    <trip id="205" depart="529.08" from="e5" to="gneE2"/>
    <trip id="206" depart="531.67" from="e12" to="e3"/>
    <trip id="207" depart="534.25" from="e12" to="e10"/>
    <trip id="208" depart="536.83" from="gneE4" to="gneE12"/>
    <trip id="209" depart="539.41" from="e9" to="gneE3"/>
    <trip id="210" depart="541.99" from="gneE11" to="e9"/>
    <trip id="211" depart="544.57" from="e14" to="e13"/>
    <trip id="212" depart="547.15" from="gneE7" to="gneE10"/>
    <trip id="213" depart="549.73" from="e2" to="e7"/>
    <trip id="214" depart="552.31" from="gneE2" to="gneE1"/>
    <trip id="215" depart="554.89" from="gneE2" to="gneE4"/>
    <trip id="216" depart="557.47" from="e10" to="gneE2"/>
    <trip id="217" depart="560.06" from="e9" to="e14"/>
    <trip id="218" depart="562.64" from="e9" to="e10"/>
    <trip id="219" depart="565.22" from="gneE3" to="e6"/>
    <trip id="220" depart="567.80" from="e2" to="gneE8"/>
    <trip id="221" depart="570.38" from="e10" to="e7"/>
    <trip id="222" depart="572.96" from="e6" to="e9"/>
    <trip id="223" depart="575.54" from="e10" to="e14"/>
    <trip id="224" depart="578.12" from="e7" to="gneE2"/>
    <trip id="225" depart="580.70" from="e13" to="e5"/>
    <trip id="226" depart="583.28" from="e8" to="e13"/>
    <trip id="227" depart="585.86" from="gneE7" to="gneE1"/>
    <trip id="228" depart="588.45" from="e8" to="e3"/>
    <trip id="229" depart="591.03" from="e5" to="e5"/>
    <trip id="230" depart="593.61" from="gneE6" to="gneE8"/>
    <trip id="231" depart="596.19" from="gneE10" to="e6"/>
    <trip id="232" depart="598.77" from="e5" to="e13"/>
    <trip id="233" depart="601.35" from="e2" to="gneE8"/>
    <trip id="234" depart="603.93" from="gneE7" to="gneE3"/>
    <trip id="235" depart="606.51" from="gneE7" to="gneE5"/>
    <trip id="236" depart="609.09" from="gneE1" to="e8"/>
    <trip id="237" depart="611.67" from="gneE5" to="e10"/>
    <trip id="238" depart="614.25" from="e13" to="e10"/>
    <trip id="239" depart="616.84" from="gneE7" to="e8"/>
    <trip id="240" depart="619.42" from="gneE6" to="e13"/>
    <trip id="241" depart="622.00" from="gneE3" to="gneE3"/>
    <trip id="242" depart="624.58" from="gneE1" to="gneE9"/>
    <trip id="243" depart="627.16" from="e13" to="e6"/>
    <trip id="244" depart="629.74" from="e12" to="gneE2"/>
    <trip id="245" depart="632.32" from="gneE5" to="e14"/>
    <trip id="246" depart="634.90" from="gneE1" to="e9"/>
    <trip id="247" depart="637.48" from="gneE10" to="e8"/>
    <trip id="248" depart="640.06" from="gneE10" to="e3"/>
    <trip id="249" depart="642.64" from="e12" to="e11"/>
    <trip id="250" depart="645.23" from="gneE9" to="gneE8"/>
    <trip id="251" depart="647.81" from="e11" to="gneE1"/>
    <trip id="252" depart="650.39" from="gneE4" to="e6"/>
    <trip id="253" depart="652.97" from="e11" to="e14"/>
    <trip id="254" depart="655.55" from="e3" to="gneE6"/>
    <trip id="255" depart="658.13" from="e9" to="gneE5"/>
    <trip id="256" depart="660.71" from="e7" to="e2"/>
    <trip id="257" depart="663.29" from="gneE10" to="e10"/>
    <trip id="258" depart="665.87" from="e3" to="e12"/>
    <trip id="259" depart="668.45" from="gneE10" to="gneE10"/>
    <trip id="260" depart="671.03" from="e7" to="gneE9"/>
    <trip id="261" depart="673.62" from="gneE10" to="gneE3"/>
    <trip id="262" depart="676.20" from="gneE5" to="e5"/>
    <trip id="263" depart="678.78" from="e11" to="e3"/>
    <trip id="264" depart="681.36" from="e3" to="e11"/>
    <trip id="265" depart="683.94" from="e6" to="gneE7"/>
    <trip id="266" depart="686.52" from="e7" to="gneE4"/>
    <trip id="267" depart="689.10" from="gneE10" to="gneE6"/>
    <trip id="268" depart="691.68" from="gneE10" to="e9"/>
    <trip id="269" depart="694.26" from="gneE8" to="gneE4"/>
    <trip id="270" depart="696.84" from="e11" to="gneE3"/>
    <trip id="271" depart="699.42" from="e8" to="gneE10"/>
    <trip id="272" depart="702.01" from="gneE6" to="e14"/>
    <trip id="273" depart="704.59" from="e13" to="e12"/>
    <trip id="274" depart="707.17" from="e14" to="e12"/>
    <trip id="275" depart="709.75" from="e5" to="gneE6"/>
    <trip id="276" depart="712.33" from="e9" to="e14"/>
    <trip id="277" depart="714.91" from="e3" to="e13"/>
    <trip id="278" depart="717.49" from="e14" to="e10"/>
    <trip id="279" depart="720.07" from="gneE12" to="e11"/>
    <trip id="280" depart="722.65" from="gneE7" to="e8"/>
    <trip id="281" depart="725.23" from="e3" to="e8"/>
    <trip id="282" depart="727.81" from="e9" to="e5"/>
    <trip id="283" depart="730.40" from="e10" to="e7"/>
    <trip id="284" depart="732.98" from="e10" to="gneE4"/>
    <trip id="285" depart="735.56" from="gneE8" to="e14"/>
    <trip id="286" depart="738.14" from="gneE2" to="e14"/>
    <trip id="287" depart="740.72" from="gneE11" to="gneE7"/>
    <trip id="288" depart="743.30" from="e3" to="gneE11"/>
    <trip id="289" depart="745.88" from="e2" to="gneE12"/>
    <trip id="290" depart="748.46" from="e7" to="e9"/>
    <trip id="291" depart="751.04" from="gneE11" to="e10"/>
    <trip id="292" depart="753.62" from="gneE5" to="gneE5"/>
    <trip id="293" depart="756.20" from="gneE5" to="gneE5"/>
    <trip id="294" depart="758.79" from="gneE7" to="e12"/>
    <trip id="295" depart="761.37" from="e9" to="e6"/>
    <trip id="296" depart="763.95" from="gneE7" to="gneE4"/>
    <trip id="297" depart="766.53" from="e3" to="gneE6"/>
    <trip id="298" depart="769.11" from="gneE3" to="gneE10"/>
    <trip id="299" depart="771.69" from="e13" to="e7"/>
    <trip id="300" depart="774.27" from="e3" to="gneE4"/>
    <trip id="301" depart="776.85" from="e12" to="gneE4"/>
    <trip id="302" depart="779.43" from="gneE2" to="gneE11"/>
    <trip id="303" depart="782.01" from="gneE7" to="gneE10"/>
    <trip id="304" depart="784.59" from="gneE10" to="gneE12"/>
    <trip id="305" depart="787.18" from="gneE10" to="e7"/>
    <trip id="306" depart="789.76" from="e7" to="e13"/>
    <trip id="307" depart="792.34" from="e11" to="e11"/>
    <trip id="308" depart="794.92" from="gneE1" to="e7"/>
    <trip id="309" depart="797.50" from="e7" to="e11"/>
    <trip id="310" depart="800.08" from="e8" to="e9"/>
    <trip id="311" depart="802.66" from="gneE3" to="e11"/>
    <trip id="312" depart="805.24" from="gneE5" to="e3"/>
    <trip id="313" depart="807.82" from="e11" to="e5"/>
    <trip id="314" depart="810.40" from="e11" to="e14"/>
    <trip id="315" depart="812.98" from="gneE2" to="e10"/>
    <trip id="316" depart="815.56" from="gneE5" to="gneE1"/>
    <trip id="317" depart="818.15" from="gneE2" to="e13"/>
    <trip id="318" depart="820.73" from="gneE3" to="e8"/>
    <trip id="319" depart="823.31" from="e13" to="gneE1"/>
    <trip id="320" depart="825.89" from="e11" to="gneE2"/>
    <trip id="321" depart="828.47" from="e6" to="e12"/>
    <trip id="322" depart="831.05" from="e10" to="gneE5"/>
    <trip id="323" depart="833.63" from="e12" to="e14"/>
    <trip id="324" depart="836.21" from="e8" to="gneE9"/>
    <trip id="325" depart="838.79" from="e9" to="gneE8"/>
    <trip id="326" depart="841.37" from="gneE1" to="e10"/>
    <trip id="327" depart="843.95" from="gneE11" to="gneE11"/>
    <trip id="328" depart="846.54" from="e13" to="gneE9"/>
    <trip id="329" depart="849.12" from="e8" to="gneE8"/>
    <trip id="330" depart="851.70" from="e5" to="e9"/>
    <trip id="331" depart="854.28" from="e8" to="gneE9"/>
    <trip id="332" depart="856.86" from="gneE2" to="gneE12"/>
    <trip id="333" depart="859.44" from="e9" to="e6"/>
    <trip id="334" depart="862.02" from="e5" to="gneE4"/>
    <trip id="335" depart="864.60" from="gneE3" to="gneE4"/>
    <trip id="336" depart="867.18" from="gneE10" to="gneE9"/>
    <trip id="337" depart="869.76" from="e8" to="e5"/>
    <trip id="338" depart="872.34" from="gneE8" to="gneE7"/>
    <trip id="339" depart="874.93" from="gneE12" to="e9"/>
    <trip id="340" depart="877.51" from="e12" to="e12"/>
    <trip id="341" depart="880.09" from="gneE12" to="e14"/>
    <trip id="342" depart="882.67" from="e9" to="e3"/>
    <trip id="343" depart="885.25" from="e12" to="gneE2"/>
    <trip id="344" depart="887.83" from="gneE8" to="gneE7"/>
    <trip id="345" depart="890.41" from="gneE5" to="gneE3"/>
    <trip id="346" depart="892.99" from="gneE11" to="e5"/>
    <trip id="347" depart="895.57" from="e5" to="gneE3"/>
    <trip id="348" depart="898.15" from="gneE5" to="gneE5"/>
    <trip id="349" depart="900.73" from="gneE7" to="e5"/>
    <trip id="350" depart="903.32" from="gneE8" to="e8"/>
    <trip id="351" depart="905.90" from="e6" to="e12"/>
    <trip id="352" depart="908.48" from="e2" to="e6"/>
    <trip id="353" depart="911.06" from="e2" to="gneE11"/>
    <trip id="354" depart="913.64" from="e14" to="gneE3"/>
    <trip id="355" depart="916.22" from="e3" to="gneE5"/>
    <trip id="356" depart="918.80" from="gneE7" to="e10"/>
    <trip id="357" depart="921.38" from="gneE3" to="gneE7"/>
    <trip id="358" depart="923.96" from="e6" to="e12"/>
    <trip id="359" depart="926.54" from="e7" to="gneE1"/>
    <trip id="360" depart="929.12" from="gneE8" to="gneE4"/>
    <trip id="361" depart="931.71" from="e9" to="gneE12"/>
    <trip id="362" depart="934.29" from="gneE5" to="gneE2"/>
    <trip id="363" depart="936.87" from="gneE1" to="e10"/>
    <trip id="364" depart="939.45" from="e12" to="e12"/>
    <trip id="365" depart="942.03" from="e14" to="e12"/>
    <trip id="366" depart="944.61" from="gneE3" to="gneE9"/>
    <trip id="367" depart="947.19" from="e6" to="gneE6"/>
    <trip id="368" depart="949.77" from="gneE7" to="e3"/>
    <trip id="369" depart="952.35" from="gneE1" to="e12"/>
    <trip id="370" depart="954.93" from="e10" to="gneE11"/>
    <trip id="371" depart="957.51" from="e9" to="e7"/>
    <trip id="372" depart="960.10" from="gneE10" to="e3"/>
    <trip id="373" depart="962.68" from="gneE5" to="e7"/>
    <trip id="374" depart="965.26" from="gneE7" to="e11"/>
    <trip id="375" depart="967.84" from="e3" to="e8"/>
    <trip id="376" depart="970.42" from="gneE4" to="gneE5"/>
    <trip id="377" depart="973.00" from="gneE3" to="gneE5"/>
    <trip id="378" depart="975.58" from="gneE8" to="e3"/>
    <trip id="379" depart="978.16" from="e9" to="e2"/>
    <trip id="380" depart="980.74" from="gneE3" to="e10"/>
    <trip id="381" depart="983.32" from="e8" to="e14"/>
    <trip id="382" depart="985.90" from="e9" to="e6"/>
    <trip id="383" depart="988.49" from="e14" to="e14"/>
    <trip id="384" depart="991.07" from="e11" to="gneE10"/>
    <trip id="385" depart="993.65" from="gneE9" to="gneE10"/>
    <trip id="386" depart="996.23" from="e5" to="e8"/>
    <trip id="387" depart="998.81" from="gneE11" to="e8"/>
    <trip id="388" depart="1001.39" from="e13" to="e8"/>
    <trip id="389" depart="1003.97" from="gneE7" to="e11"/>
    <trip id="390" depart="1006.55" from="gneE9" to="e5"/>
    <trip id="391" depart="1009.13" from="e6" to="e5"/>
    <trip id="392" depart="1011.71" from="e6" to="e7"/>
    <trip id="393" depart="1014.29" from="gneE1" to="e9"/>
    <trip id="394" depart="1016.88" from="gneE11" to="e7"/>
    <trip id="395" depart="1019.46" from="e11" to="e7"/>
    <trip id="396" depart="1022.04" from="gneE4" to="gneE8"/>
    <trip id="397" depart="1024.62" from="e6" to="e6"/>
    <trip id="398" depart="1027.20" from="gneE8" to="gneE5"/>
    <trip id="399" depart="1029.78" from="gneE10" to="e14"/>
    <trip id="400" depart="1032.36" from="gneE4" to="e2"/>
    <trip id="401" depart="1034.94" from="gneE8" to="e6"/>
    <trip id="402" depart="1037.52" from="gneE11" to="e2"/>
    <trip id="403" depart="1040.10" from="e3" to="e13"/>
    <trip id="404" depart="1042.68" from="e9" to="gneE11"/>
    <trip id="405" depart="1045.27" from="gneE8" to="e9"/>
    <trip id="406" depart="1047.85" from="e10" to="e7"/>
    <trip id="407" depart="1050.43" from="e5" to="e2"/>
    <trip id="408" depart="1053.01" from="e13" to="gneE11"/>
    <trip id="409" depart="1055.59" from="gneE2" to="gneE1"/>
    <trip id="410" depart="1058.17" from="gneE6" to="e14"/>
    <trip id="411" depart="1060.75" from="e14" to="e6"/>
    <trip id="412" depart="1063.33" from="e2" to="gneE12"/>
    <trip id="413" depart="1065.91" from="gneE9" to="e14"/>
    <trip id="414" depart="1068.49" from="gneE10" to="gneE11"/>
    <trip id="415" depart="1071.07" from="e8" to="e7"/>
    <trip id="416" depart="1073.66" from="gneE3" to="gneE4"/>
    <trip id="417" depart="1076.24" from="e2" to="e11"/>
    <trip id="418" depart="1078.82" from="gneE5" to="gneE9"/>
    <trip id="419" depart="1081.40" from="e12" to="e9"/>
    <trip id="420" depart="1083.98" from="e3" to="e13"/>
    <trip id="421" depart="1086.56" from="e8" to="gneE4"/>
    <trip id="422" depart="1089.14" from="e5" to="e2"/>
    <trip id="423" depart="1091.72" from="gneE2" to="e10"/>
    <trip id="424" depart="1094.30" from="e5" to="gneE3"/>
    <trip id="425" depart="1096.88" from="e7" to="e8"/>
    <trip id="426" depart="1099.46" from="e13" to="gneE6"/>
    <trip id="427" depart="1102.05" from="gneE6" to="e3"/>
    <trip id="428" depart="1104.63" from="e14" to="gneE3"/>
    <trip id="429" depart="1107.21" from="e6" to="e11"/>
    <trip id="430" depart="1109.79" from="gneE9" to="e14"/>
    <trip id="431" depart="1112.37" from="gneE6" to="e9"/>
    <trip id="432" depart="1114.95" from="gneE1" to="gneE5"/>
    <trip id="433" depart="1117.53" from="gneE7" to="gneE4"/>
    <trip id="434" depart="1120.11" from="e8" to="e10"/>
    <trip id="435" depart="1122.69" from="e13" to="gneE4"/>
    <trip id="436" depart="1125.27" from="gneE2" to="e8"/>
    <trip id="437" depart="1127.85" from="e9" to="gneE10"/>
    <trip id="438" depart="1130.44" from="gneE5" to="e5"/>
    <trip id="439" depart="1133.02" from="gneE8" to="gneE11"/>
    <trip id="440" depart="1135.60" from="e2" to="e12"/>
    <trip id="441" depart="1138.18" from="e9" to="gneE1"/>
    <trip id="442" depart="1140.76" from="e10" to="gneE3"/>
    <trip id="443" depart="1143.34" from="gneE8" to="gneE2"/>
    <trip id="444" depart="1145.92" from="e3" to="e10"/>
    <trip id="445" depart="1148.50" from="e8" to="e11"/>
    <trip id="446" depart="1151.08" from="gneE7" to="e8"/>
    <trip id="447" depart="1153.66" from="e7" to="gneE6"/>
    <trip id="448" depart="1156.24" from="e7" to="e3"/>
    <trip id="449" depart="1158.82" from="gneE7" to="e9"/>
    <trip id="450" depart="1161.41" from="gneE6" to="gneE2"/>
    <trip id="451" depart="1163.99" from="gneE4" to="gneE5"/>
    <trip id="452" depart="1166.57" from="e9" to="gneE6"/>
    <trip id="453" depart="1169.15" from="e9" to="gneE7"/>
    <trip id="454" depart="1171.73" from="e12" to="e12"/>
    <trip id="455" depart="1174.31" from="gneE9" to="e2"/>
    <trip id="456" depart="1176.89" from="gneE1" to="e9"/>
    <trip id="457" depart="1179.47" from="gneE6" to="gneE4"/>
    <trip id="458" depart="1182.05" from="gneE2" to="gneE2"/>
    <trip id="459" depart="1184.63" from="e5" to="e2"/>
    <trip id="460" depart="1187.21" from="e9" to="gneE3"/>
    <trip id="461" depart="1189.80" from="gneE12" to="e6"/>
    <trip id="462" depart="1192.38" from="e12" to="gneE10"/>
    <trip id="463" depart="1194.96" from="e11" to="gneE11"/>
    <trip id="464" depart="1197.54" from="gneE4" to="e3"/>
    <trip id="465" depart="1200.12" from="gneE6" to="gneE2"/>
    <trip id="466" depart="1202.70" from="e8" to="gneE1"/>
    <trip id="467" depart="1205.28" from="gneE10" to="e12"/>
    <trip id="468" depart="1207.86" from="gneE5" to="e2"/>
    <trip id="469" depart="1210.44" from="gneE2" to="e10"/>
    <trip id="470" depart="1213.02" from="gneE2" to="gneE8"/>
    <trip id="471" depart="1215.60" from="e8" to="e13"/>
    <trip id="472" depart="1218.19" from="e2" to="e6"/>
    <trip id="473" depart="1220.77" from="gneE8" to="gneE1"/>
    <trip id="474" depart="1223.35" from="e13" to="e12"/>
    <trip id="475" depart="1225.93" from="e13" to="e14"/>
    <trip id="476" depart="1228.51" from="gneE4" to="e12"/>
    <trip id="477" depart="1231.09" from="e3" to="gneE10"/>
    <trip id="478" depart="1233.67" from="gneE1" to="e10"/>
    <trip id="479" depart="1236.25" from="e3" to="e7"/>
    <trip id="480" depart="1238.83" from="gneE12" to="gneE11"/>
    <trip id="481" depart="1241.41" from="gneE3" to="gneE3"/>
    <trip id="482" depart="1243.99" from="gneE11" to="gneE4"/>
    <trip id="483" depart="1246.58" from="gneE9" to="gneE4"/>
    <trip id="484" depart="1249.16" from="e11" to="gneE9"/>
    <trip id="485" depart="1251.74" from="e11" to="e6"/>
    <trip id="486" depart="1254.32" from="gneE8" to="gneE3"/>
    <trip id="487" depart="1256.90" from="gneE7" to="e5"/>
    <trip id="488" depart="1259.48" from="e3" to="e10"/>
    <trip id="489" depart="1262.06" from="e11" to="e7"/>
    <trip id="490" depart="1264.64" from="e2" to="e9"/>
    <trip id="491" depart="1267.22" from="e2" to="e12"/>
    <trip id="492" depart="1269.80" from="gneE4" to="gneE1"/>
    <trip id="493" depart="1272.38" from="e11" to="e3"/>
    <trip id="494" depart="1274.97" from="gneE2" to="e3"/>
    <trip id="495" depart="1277.55" from="e14" to="gneE1"/>
    <trip id="496" depart="1280.13" from="e14" to="gneE4"/>
    <trip id="497" depart="1282.71" from="e9" to="e2"/>
    <trip id="498" depart="1285.29" from="gneE8" to="gneE7"/>
    <trip id="499" depart="1287.87" from="gneE9" to="e12"/>
    <trip id="500" depart="1290.45" from="gneE11" to="e12"/>
    <trip id="501" depart="1293.03" from="e3" to="e11"/>
    <trip id="502" depart="1295.61" from="e10" to="gneE4"/>
    <trip id="503" depart="1298.19" from="gneE6" to="gneE8"/>
    <trip id="504" depart="1300.77" from="e5" to="gneE10"/>
    <trip id="505" depart="1303.36" from="e5" to="e5"/>
    <trip id="506" depart="1305.94" from="e2" to="e11"/>
    <trip id="507" depart="1308.52" from="e12" to="e13"/>
    <trip id="508" depart="1311.10" from="gneE1" to="e3"/>