<?xml version="1.0" encoding="UTF-8"?>
<!-- generated on 2020-12-22 02:11:20.463853 by $Id$ UNKNOWN
  options: 
-->
<routes xmlns:xsi="http://www.w3.org/2001/XMLSchema-instance" xsi:noNamespaceSchemaLocation="http://sumo.dlr.de/xsd/routes_file.xsd">
    <trip id="0" depart="0.00" from="gneE1" to="e14"/>
    <trip id="1" depart="2.12" from="e11" to="e14"/>
    <trip id="2" depart="4.24" from="gneE5" to="gneE2"/>
    <trip id="3" depart="6.37" from="gneE9" to="e6"/>
    <trip id="4" depart="8.49" from="gneE8" to="gneE6"/>
    <trip id="5" depart="10.61" from="e10" to="e2"/>
    <trip id="6" depart="12.73" from="e3" to="e6"/>
    <trip id="7" depart="14.85" from="e8" to="e7"/>
    <trip id="8" depart="16.97" from="gneE3" to="gneE6"/>
    <trip id="9" depart="19.10" from="gneE5" to="e9"/>
    <trip id="10" depart="21.22" from="gneE9" to="e2"/>
    <trip id="11" depart="23.34" from="gneE11" to="e7"/>
    <trip id="12" depart="25.46" from="gneE9" to="e5"/>
    <trip id="13" depart="27.58" from="gneE10" to="gneE4"/>
    <trip id="14" depart="29.70" from="e8" to="gneE12"/>
    <trip id="15" depart="31.83" from="gneE1" to="gneE5"/>
    <trip id="16" depart="33.95" from="e5" to="e12"/>
    <trip id="17" depart="36.07" from="e14" to="e5"/>
    <trip id="18" depart="38.19" from="gneE1" to="e2"/>
    <trip id="19" depart="40.31" from="gneE10" to="gneE2"/>
    <trip id="20" depart="42.43" from="e3" to="gneE8"/>
    <trip id="21" depart="44.56" from="gneE4" to="gneE1"/>
    <trip id="22" depart="46.68" from="e10" to="gneE3"/>
    <trip id="23" depart="48.80" from="gneE3" to="gneE10"/>
    <trip id="24" depart="50.92" from="e7" to="e10"/>
    <trip id="25" depart="53.04" from="e3" to="e7"/>
    <trip id="26" depart="55.16" from="gneE4" to="e3"/>
    <trip id="27" depart="57.29" from="e12" to="e7"/>
    <trip id="28" depart="59.41" from="e2" to="e7"/>
    <trip id="29" depart="61.53" from="e10" to="gneE7"/>
    <trip id="30" depart="63.65" from="e9" to="e5"/>
    <trip id="31" depart="65.77" from="gneE2" to="gneE2"/>
    <trip id="32" depart="67.89" from="gneE3" to="e7"/>
    <trip id="33" depart="70.02" from="gneE3" to="gneE10"/>
    <trip id="34" depart="72.14" from="e9" to="e14"/>
    <trip id="35" depart="74.26" from="e11" to="e8"/>
    <trip id="36" depart="76.38" from="e5" to="e14"/>
    <trip id="37" depart="78.50" from="e5" to="e13"/>
    <trip id="38" depart="80.62" from="gneE6" to="e5"/>
    <trip id="39" depart="82.75" from="e13" to="gneE10"/>
    <trip id="40" depart="84.87" from="gneE1" to="e5"/>
    <trip id="41" depart="86.99" from="gneE6" to="gneE9"/>
    <trip id="42" depart="89.11" from="gneE7" to="e11"/>
    <trip id="43" depart="91.23" from="e3" to="gneE4"/>
    <trip id="44" depart="93.35" from="e14" to="gneE4"/>
    <trip id="45" depart="95.48" from="e10" to="e8"/>
    <trip id="46" depart="97.60" from="gneE11" to="e14"/>
    <trip id="47" depart="99.72" from="e8" to="gneE8"/>
    <trip id="48" depart="101.84" from="e10" to="gneE8"/>
    <trip id="49" depart="103.96" from="gneE2" to="gneE3"/>
    <trip id="50" depart="106.08" from="gneE10" to="e13"/>
    <trip id="51" depart="108.21" from="e6" to="gneE1"/>
    <trip id="52" depart="110.33" from="gneE9" to="e7"/>
    <trip id="53" depart="112.45" from="e13" to="gneE7"/>
    <trip id="54" depart="114.57" from="e11" to="gneE10"/>
    <trip id="55" depart="116.69" from="e5" to="e6"/>
    <trip id="56" depart="118.81" from="gneE7" to="gneE6"/>
    <trip id="57" depart="120.94" from="e9" to="e2"/>
    <trip id="58" depart="123.06" from="e6" to="e3"/>
    <trip id="59" depart="125.18" from="e12" to="gneE12"/>
    <trip id="60" depart="127.30" from="e13" to="e12"/>
    <trip id="61" depart="129.42" from="e7" to="e10"/>
    <trip id="62" depart="131.54" from="e8" to="gneE1"/>
    <trip id="63" depart="133.67" from="e8" to="e2"/>
    <trip id="64" depart="135.79" from="e11" to="gneE3"/>
    <trip id="65" depart="137.91" from="gneE2" to="e11"/>
    <trip id="66" depart="140.03" from="e11" to="gneE3"/>
    <trip id="67" depart="142.15" from="gneE10" to="gneE5"/>
    <trip id="68" depart="144.27" from="e7" to="gneE9"/>
    <trip id="69" depart="146.40" from="e5" to="gneE11"/>
    <trip id="70" depart="148.52" from="e5" to="gneE9"/>
    <trip id="71" depart="150.64" from="e2" to="gneE12"/>
    <trip id="72" depart="152.76" from="e10" to="e11"/>
    <trip id="73" depart="154.88" from="e9" to="e12"/>
    <trip id="74" depart="157.00" from="gneE1" to="gneE6"/>
    <trip id="75" depart="159.13" from="gneE1" to="e14"/>
    <trip id="76" depart="161.25" from="e2" to="e3"/>
    <trip id="77" depart="163.37" from="e8" to="e6"/>
    <trip id="78" depart="165.49" from="e3" to="e6"/>
    <trip id="79" depart="167.61" from="gneE2" to="e14"/>
    <trip id="80" depart="169.73" from="e9" to="gneE6"/>
    <trip id="81" depart="171.86" from="e11" to="gneE5"/>
    <trip id="82" depart="173.98" from="gneE8" to="e14"/>
    <trip id="83" depart="176.10" from="e7" to="e8"/>
    <trip id="84" depart="178.22" from="e9" to="gneE8"/>
    <trip id="85" depart="180.34" from="gneE9" to="gneE11"/>
    <trip id="86" depart="182.46" from="gneE11" to="e7"/>
    <trip id="87" depart="184.59" from="e14" to="e14"/>
    <trip id="88" depart="186.71" from="gneE3" to="gneE10"/>
    <trip id="89" depart="188.83" from="e12" to="gneE5"/>
    <trip id="90" depart="190.95" from="e12" to="e10"/>
    <trip id="91" depart="193.07" from="e9" to="gneE1"/>
    <trip id="92" depart="195.19" from="gneE2" to="gneE6"/>
    <trip id="93" depart="197.32" from="e10" to="gneE1"/>
    <trip id="94" depart="199.44" from="e2" to="e2"/>
    <trip id="95" depart="201.56" from="gneE8" to="e3"/>
    <trip id="96" depart="203.68" from="gneE1" to="e2"/>
    <trip id="97" depart="205.80" from="gneE7" to="e2"/>
    <trip id="98" depart="207.92" from="gneE11" to="e12"/>
    <trip id="99" depart="210.05" from="gneE12" to="gneE2"/>
    <trip id="100" depart="212.17" from="e13" to="gneE6"/>
    <trip id="101" depart="214.29" from="e5" to="gneE3"/>
    <trip id="102" depart="216.41" from="e10" to="gneE5"/>
    <trip id="103" depart="218.53" from="e5" to="e14"/>
    <trip id="104" depart="220.65" from="gneE9" to="e6"/>
    <trip id="105" depart="222.78" from="e11" to="e7"/>
    <trip id="106" depart="224.90" from="gneE5" to="gneE10"/>
    <trip id="107" depart="227.02" from="gneE2" to="e6"/>
    <trip id="108" depart="229.14" from="e9" to="e10"/>
    <trip id="109" depart="231.26" from="gneE10" to="gneE7"/>
    <trip id="110" depart="233.38" from="gneE6" to="e12"/>
    <trip id="111" depart="235.51" from="e8" to="gneE5"/>
    <trip id="112" depart="237.63" from="gneE7" to="gneE3"/>
    <trip id="113" depart="239.75" from="e5" to="e13"/>
    <trip id="114" depart="241.87" from="e3" to="gneE6"/>
    <trip id="115" depart="243.99" from="e3" to="gneE7"/>
    <trip id="116" depart="246.11" from="gneE2" to="gneE9"/>
    <trip id="117" depart="248.24" from="e14" to="e13"/>
    <trip id="118" depart="250.36" from="e10" to="gneE11"/>
    <trip id="119" depart="252.48" from="gneE9" to="e12"/>
    <trip id="120" depart="254.60" from="gneE6" to="gneE9"/>
    <trip id="121" depart="256.72" from="gneE5" to="gneE8"/>
    <trip id="122" depart="258.84" from="e3" to="e10"/>
    <trip id="123" depart="260.97" from="e12" to="e2"/>
    <trip id="124" depart="263.09" from="e10" to="gneE1"/>
    <trip id="125" depart="265.21" from="e12" to="e5"/>
    <trip id="126" depart="267.33" from="e2" to="e5"/>
    <trip id="127" depart="269.45" from="gneE3" to="gneE6"/>
    <trip id="128" depart="271.57" from="gneE7" to="e7"/>
    <trip id="129" depart="273.70" from="gneE11" to="gneE12"/>
    <trip id="130" depart="275.82" from="e14" to="gneE8"/>
    <trip id="131" depart="277.94" from="e8" to="e2"/>
    <trip id="132" depart="280.06" from="e10" to="gneE2"/>
    <trip id="133" depart="282.18" from="gneE7" to="gneE3"/>
    <trip id="134" depart="284.30" from="gneE3" to="e7"/>
    <trip id="135" depart="286.43" from="e10" to="e11"/>
    <trip id="136" depart="288.55" from="e12" to="gneE3"/>
    <trip id="137" depart="290.67" from="gneE2" to="gneE11"/>
    <trip id="138" depart="292.79" from="gneE12" to="e13"/>
    <trip id="139" depart="294.91" from="e2" to="gneE2"/>
    <trip id="140" depart="297.03" from="e11" to="gneE9"/>
    <trip id="141" depart="299.16" from="e12" to="gneE10"/>
    <trip id="142" depart="301.28" from="e5" to="e2"/>
    <trip id="143" depart="303.40" from="e13" to="gneE10"/>
    <trip id="144" depart="305.52" from="gneE12" to="e10"/>
    <trip id="145" depart="307.64" from="e5" to="e12"/>
    <trip id="146" depart="309.76" from="gneE9" to="gneE7"/>
    <trip id="147" depart="311.89" from="e10" to="e9"/>
    <trip id="148" depart="314.01" from="e13" to="gneE11"/>
    <trip id="149" depart="316.13" from="gneE1" to="e2"/>
    <trip id="150" depart="318.25" from="e6" to="gneE5"/>
    <trip id="151" depart="320.37" from="e10" to="e2"/>
    <trip id="152" depart="322.49" from="gneE8" to="gneE6"/>
    <trip id="153" depart="324.62" from="gneE7" to="e10"/>
    <trip id="154" depart="326.74" from="gneE2" to="e8"/>
    <trip id="155" depart="328.86" from="e5" to="gneE3"/>
    <trip id="156" depart="330.98" from="e9" to="e14"/>
    <trip id="157" depart="333.10" from="e10" to="e6"/>
    <trip id="158" depart="335.22" from="gneE7" to="e6"/>
    <trip id="159" depart="337.35" from="e2" to="e5"/>
    <trip id="160" depart="339.47" from="e10" to="e3"/>
    <trip id="161" depart="341.59" from="e10" to="e2"/>
    <trip id="162" depart="343.71" from="gneE1" to="e10"/>
    <trip id="163" depart="345.83" from="gneE10" to="e13"/>
    <trip id="164" depart="347.96" from="gneE12" to="e3"/>
    <trip id="165" depart="350.08" from="e11" to="e9"/>
    <trip id="166" depart="352.20" from="gneE2" to="gneE9"/>
    <trip id="167" depart="354.32" from="e9" to="gneE4"/>
    <trip id="168" depart="356.44" from="gneE4" to="gneE11"/>
    <trip id="169" depart="358.56" from="gneE4" to="e5"/>
    <trip id="170" depart="360.69" from="e6" to="e14"/>
    <trip id="171" depart="362.81" from="e9" to="gneE7"/>
    <trip id="172" depart="364.93" from="gneE7" to="e7"/>
    <trip id="173" depart="367.05" from="e14" to="gneE7"/>
    <trip id="174" depart="369.17" from="e14" to="e5"/>
    <trip id="175" depart="371.29" from="gneE6" to="e9"/>
    <trip id="176" depart="373.42" from="e7" to="gneE6"/>
    <trip id="177" depart="375.54" from="gneE4" to="gneE10"/>
    <trip id="178" depart="377.66" from="gneE11" to="e13"/>
    <trip id="179" depart="379.78" from="e6" to="e3"/>
    <trip id="180" depart="381.90" from="e7" to="gneE6"/>
    <trip id="181" depart="384.02" from="e7" to="e3"/>
    <trip id="182" depart="386.15" from="e11" to="e11"/>
    <trip id="183" depart="388.27" from="gneE12" to="gneE6"/>
    <trip id="184" depart="390.39" from="gneE6" to="e12"/>
    <trip id="185" depart="392.51" from="gneE10" to="gneE4"/>
    <trip id="186" depart="394.63" from="gneE7" to="gneE1"/>
    <trip id="187" depart="396.75" from="e11" to="gneE9"/>
    <trip id="188" depart="398.88" from="e5" to="e13"/>
    <trip id="189" depart="401.00" from="e3" to="gneE5"/>
    <trip id="190" depart="403.12" from="gneE8" to="gneE8"/>
    <trip id="191" depart="405.24" from="e6" to="e11"/>
    <trip id="192" depart="407.36" from="e13" to="e8"/>
    <trip id="193" depart="409.48" from="gneE9" to="gneE8"/>
    <trip id="194" depart="411.61" from="gneE9" to="e5"/>
    <trip id="195" depart="413.73" from="e13" to="e13"/>
    <trip id="196" depart="415.85" from="e14" to="gneE6"/>
    <trip id="197" depart="417.97" from="gneE5" to="e13"/>
    <trip id="198" depart="420.09" from="e11" to="e14"/>
    <trip id="199" depart="422.21" from="e8" to="e8"/>
    <trip id="200" depart="424.34" from="gneE11" to="gneE6"/>
    <trip id="201" depart="426.46" from="gneE5" to="gneE2"/>
    <trip id="202" depart="428.58" from="e12" to="e14"/>
    <trip id="203" depart="430.70" from="gneE11" to="e5"/>
    <trip id="204" depart="432.82" from="gneE5" to="gneE2"/>
    <trip id="205" depart="434.94" from="e13" to="e11"/>
    <trip id="206" depart="437.07" from="gneE1" to="e10"/>
    <trip id="207" depart="439.19" from="gneE2" to="e12"/>
    <trip id="208" depart="441.31" from="e13" to="e13"/>
    <trip id="209" depart="443.43" from="gneE8" to="e8"/>
    <trip id="210" depart="445.55" from="gneE11" to="e6"/>
    <trip id="211" depart="447.67" from="e14" to="gneE10"/>
    <trip id="212" depart="449.80" from="gneE8" to="e7"/>
    <trip id="213" depart="451.92" from="gneE9" to="e7"/>
    <trip id="214" depart="454.04" from="gneE5" to="gneE2"/>
    <trip id="215" depart="456.16" from="gneE11" to="e6"/>
    <trip id="216" depart="458.28" from="e10" to="gneE2"/>
    <trip id="217" depart="460.40" from="e10" to="gneE8"/>
    <trip id="218" depart="462.53" from="gneE1" to="gneE2"/>
    <trip id="219" depart="464.65" from="e8" to="gneE11"/>
    <trip id="220" depart="466.77" from="e2" to="e2"/>
    <trip id="221" depart="468.89" from="gneE6" to="gneE5"/>
    <trip id="222" depart="471.01" from="gneE4" to="e5"/>
    <trip id="223" depart="473.13" from="e8" to="e12"/>
    <trip id="224" depart="475.26" from="e8" to="e11"/>
    <trip id="225" depart="477.38" from="e5" to="gneE8"/>
    <trip id="226" depart="479.50" from="gneE4" to="e7"/>
    <trip id="227" depart="481.62" from="e12" to="e11"/>
    <trip id="228" depart="483.74" from="e14" to="gneE11"/>
    <trip id="229" depart="485.86" from="gneE10" to="e5"/>
    <trip id="230" depart="487.99" from="gneE4" to="gneE11"/>
    <trip id="231" depart="490.11" from="e14" to="e7"/>
    <trip id="232" depart="492.23" from="e3" to="e6"/>
    <trip id="233" depart="494.35" from="gneE10" to="e10"/>
    <trip id="234" depart="496.47" from="e5" to="gneE7"/>
    <trip id="235" depart="498.59" from="e10" to="gneE1"/>
    <trip id="236" depart="500.72" from="e13" to="gneE4"/>
    <trip id="237" depart="502.84" from="gneE3" to="e2"/>
    <trip id="238" depart="504.96" from="gneE2" to="e13"/>
    <trip id="239" depart="507.08" from="gneE8" to="gneE11"/>
    <trip id="240" depart="509.20" from="e8" to="gneE8"/>
    <trip id="241" depart="511.32" from="e2" to="gneE7"/>
    <trip id="242" depart="513.45" from="e3" to="gneE12"/>
    <trip id="243" depart="515.57" from="gneE2" to="gneE9"/>
    <trip id="244" depart="517.69" from="e14" to="e14"/>
    <trip id="245" depart="519.81" from="gneE8" to="gneE6"/>
    <trip id="246" depart="521.93" from="e6" to="gneE6"/>
    <trip id="247" depart="524.05" from="gneE11" to="e7"/>
    <trip id="248" depart="526.18" from="gneE11" to="gneE12"/>
    <trip id="249" depart="528.30" from="gneE8" to="gneE2"/>
    <trip id="250" depart="530.42" from="gneE5" to="gneE5"/>
    <trip id="251" depart="532.54" from="gneE7" to="e10"/>
    <trip id="252" depart="534.66" from="e13" to="gneE10"/>
    <trip id="253" depart="536.78" from="e5" to="e14"/>
    <trip id="254" depart="538.91" from="e5" to="e7"/>
    <trip id="255" depart="541.03" from="e3" to="e12"/>
    <trip id="256" depart="543.15" from="e7" to="e14"/>
    <trip id="257" depart="545.27" from="e13" to="gneE8"/>
    <trip id="258" depart="547.39" from="e8" to="gneE7"/>
    <trip id="259" depart="549.51" from="e8" to="e12"/>
    <trip id="260" depart="551.64" from="e10" to="e10"/>
    <trip id="261" depart="553.76" from="e8" to="e14"/>
    <trip id="262" depart="555.88" from="e12" to="e3"/>
    <trip id="263" depart="558.00" from="e9" to="e14"/>
    <trip id="264" depart="560.12" from="e10" to="gneE3"/>
    <trip id="265" depart="562.24" from="gneE2" to="e5"/>
    <trip id="266" depart="564.37" from="e3" to="gneE4"/>
    <trip id="267" depart="566.49" from="gneE4" to="gneE5"/>
    <trip id="268" depart="568.61" from="gneE1" to="e3"/>
    <trip id="269" depart="570.73" from="gneE4" to="gneE10"/>
    <trip id="270" depart="572.85" from="e10" to="gneE4"/>
    <trip id="271" depart="574.97" from="e6" to="gneE3"/>
    <trip id="272" depart="577.10" from="gneE6" to="e14"/>
    <trip id="273" depart="579.22" from="gneE8" to="gneE12"/>
    <trip id="274" depart="581.34" from="gneE11" to="e12"/>
    <trip id="275" depart="583.46" from="gneE5" to="gneE11"/>
    <trip id="276" depart="585.58" from="e12" to="gneE7"/>
    <trip id="277" depart="587.70" from="gneE8" to="e12"/>
    <trip id="278" depart="589.83" from="gneE10" to="e12"/>
    <trip id="279" depart="591.95" from="gneE11" to="gneE9"/>
    <trip id="280" depart="594.07" from="e13" to="e6"/>
    <trip id="281" depart="596.19" from="e3" to="e14"/>
    <trip id="282" depart="598.31" from="gneE1" to="gneE3"/>
    <trip id="283" depart="600.43" from="e10" to="e6"/>
    <trip id="284" depart="602.56" from="gneE1" to="gneE6"/>
    <trip id="285" depart="604.68" from="gneE2" to="gneE4"/>
    <trip id="286" depart="606.80" from="e10" to="e3"/>
    <trip id="287" depart="608.92" from="gneE11" to="gneE12"/>
    <trip id="288" depart="611.04" from="e11" to="gneE8"/>
    <trip id="289" depart="613.16" from="e3" to="e12"/>
    <trip id="290" depart="615.29" from="e13" to="gneE8"/>
    <trip id="291" depart="617.41" from="e3" to="e12"/>
    <trip id="292" depart="619.53" from="e5" to="e11"/>
    <trip id="293" depart="621.65" from="gneE7" to="gneE1"/>
    <trip id="294" depart="623.77" from="e11" to="gneE10"/>
    <trip id="295" depart="625.89" from="e2" to="e10"/>
    <trip id="296" depart="628.02" from="e13" to="gneE5"/>
    <trip id="297" depart="630.14" from="e12" to="e2"/>
    <trip id="298" depart="632.26" from="gneE12" to="e8"/>
    <trip id="299" depart="634.38" from="gneE8" to="gneE6"/>
    <trip id="300" depart="636.50" from="gneE1" to="gneE11"/>
    <trip id="301" depart="638.62" from="gneE10" to="gneE6"/>
    <trip id="302" depart="640.75" from="gneE5" to="e8"/>
    <trip id="303" depart="642.87" from="gneE4" to="e12"/>
    <trip id="304" depart="644.99" from="e5" to="gneE9"/>
    <trip id="305" depart="647.11" from="gneE3" to="e2"/>
    <trip id="306" depart="649.23" from="gneE3" to="e10"/>
    <trip id="307" depart="651.35" from="gneE7" to="e2"/>
    <trip id="308" depart="653.48" from="e7" to="e11"/>
    <trip id="309" depart="655.60" from="gneE1" to="e10"/>
    <trip id="310" depart="657.72" from="e11" to="gneE11"/>
    <trip id="311" depart="659.84" from="e6" to="e6"/>
    <trip id="312" depart="661.96" from="e14" to="e11"/>
    <trip id="313" depart="664.08" from="gneE11" to="e12"/>
    <trip id="314" depart="666.21" from="gneE10" to="e11"/>
    <trip id="315" depart="668.33" from="gneE6" to="e3"/>
    <trip id="316" depart="670.45" from="e13" to="gneE8"/>
    <trip id="317" depart="672.57" from="gneE8" to="gneE7"/>
    <trip id="318" depart="674.69" from="gneE2" to="gneE4"/>
    <trip id="319" depart="676.81" from="e5" to="e5"/>
    <trip id="320" depart="678.94" from="e3" to="e12"/>
    <trip id="321" depart="681.06" from="gneE2" to="gneE4"/>
    <trip id="322" depart="683.18" from="e13" to="gneE11"/>
    <trip id="323" depart="685.30" from="e14" to="gneE1"/>
    <trip id="324" depart="687.42" from="e6" to="gneE6"/>
    <trip id="325" depart="689.54" from="gneE3" to="gneE8"/>
    <trip id="326" depart="691.67" from="gneE5" to="e8"/>
    <trip id="327" depart="693.79" from="e9" to="e5"/>
    <trip id="328" depart="695.91" from="e9" to="e2"/>
    <trip id="329" depart="698.03" from="gneE8" to="e7"/>
    <trip id="330" depart="700.15" from="gneE10" to="e9"/>
    <trip id="331" depart="702.28" from="gneE4" to="e12"/>
    <trip id="332" depart="704.40" from="e10" to="gneE11"/>
    <trip id="333" depart="706.52" from="e8" to="gneE1"/>
    <trip id="334" depart="708.64" from="gneE6" to="gneE5"/>
    <trip id="335" depart="710.76" from="gneE2" to="gneE11"/>
    <trip id="336" depart="712.88" from="e6" to="e10"/>
    <trip id="337" depart="715.01" from="e12" to="e3"/>
    <trip id="338" depart="717.13" from="gneE3" to="e12"/>
    <trip id="339" depart="719.25" from="gneE2" to="e11"/>
    <trip id="340" depart="721.37" from="e2" to="e6"/>
    <trip id="341" depart="723.49" from="gneE11" to="gneE12"/>
    <trip id="342" depart="725.61" from="e12" to="e10"/>
    <trip id="343" depart="727.74" from="e2" to="gneE2"/>
    <trip id="344" depart="729.86" from="gneE10" to="gneE8"/>
    <trip id="345" depart="731.98" from="e5" to="gneE6"/>
    <trip id="346" depart="734.10" from="e12" to="e12"/>
    <trip id="347" depart="736.22" from="gneE2" to="gneE2"/>
    <trip id="348" depart="738.34" from="e8" to="gneE5"/>
    <trip id="349" depart="740.47" from="e6" to="gneE6"/>
    <trip id="350" depart="742.59" from="e12" to="gneE1"/>
    <trip id="351" depart="744.71" from="gneE5" to="gneE4"/>
    <trip id="352" depart="746.83" from="gneE4" to="e10"/>
    <trip id="353" depart="748.95" from="e5" to="e12"/>
    <trip id="354" depart="751.07" from="e12" to="e6"/>
    <trip id="355" depart="753.20" from="gneE4" to="e10"/>
    <trip id="356" depart="755.32" from="e2" to="gneE11"/>
    <trip id="357" depart="757.44" from="e11" to="e14"/>
    <trip id="358" depart="759.56" from="gneE5" to="gneE4"/>
    <trip id="359" depart="761.68" from="gneE11" to="e2"/>
    <trip id="360" depart="763.80" from="gneE4" to="gneE12"/>
    <trip id="361" depart="765.93" from="e9" to="e7"/>
    <trip id="362" depart="768.05" from="gneE6" to="e13"/>
    <trip id="363" depart="770.17" from="e8" to="gneE1"/>
    <trip id="364" depart="772.29" from="gneE12" to="gneE1"/>
    <trip id="365" depart="774.41" from="gneE8" to="gneE11"/>
    <trip id="366" depart="776.53" from="gneE6" to="e6"/>
    <trip id="367" depart="778.66" from="e9" to="gneE6"/>
    <trip id="368" depart="780.78" from="gneE8" to="gneE2"/>
    <trip id="369" depart="782.90" from="gneE2" to="e14"/>
    <trip id="370" depart="785.02" from="gneE9" to="gneE10"/>
    <trip id="371" depart="787.14" from="gneE7" to="gneE2"/>
    <trip id="372" depart="789.26" from="gneE4" to="e9"/>
    <trip id="373" depart="791.39" from="gneE7" to="gneE4"/>
    <trip id="374" depart="793.51" from="gneE6" to="e5"/>
    <trip id="375" depart="795.63" from="e14" to="e12"/>
    <trip id="376" depart="797.75" from="e8" to="e2"/>
    <trip id="377" depart="799.87" from="gneE6" to="e7"/>
    <trip id="378" depart="801.99" from="gneE4" to="e6"/>
    <trip id="379" depart="804.12" from="e9" to="gneE4"/>
    <trip id="380" depart="806.24" from="e5" to="gneE10"/>
    <trip id="381" depart="808.36" from="gneE4" to="e7"/>
    <trip id="382" depart="810.48" from="e12" to="e14"/>
    <trip id="383" depart="812.60" from="e7" to="e5"/>
    <trip id="384" depart="814.72" from="gneE7" to="gneE2"/>
    <trip id="385" depart="816.85" from="gneE11" to="gneE6"/>
    <trip id="386" depart="818.97" from="gneE6" to="gneE4"/>
    <trip id="387" depart="821.09" from="e9" to="e7"/>
    <trip id="388" depart="823.21" from="e6" to="gneE4"/>
    <trip id="389" depart="825.33" from="gneE12" to="gneE1"/>
    <trip id="390" depart="827.45" from="gneE8" to="gneE9"/>
    <trip id="391" depart="829.58" from="e2" to="e2"/>
    <trip id="392" depart="831.70" from="e12" to="gneE12"/>
    <trip id="393" depart="833.82" from="e7" to="gneE6"/>
    <trip id="394" depart="835.94" from="gneE8" to="gneE9"/>
    <trip id="395" depart="838.06" from="gneE11" to="e8"/>
    <trip id="396" depart="840.18" from="gneE3" to="gneE1"/>
    <trip id="397" depart="842.31" from="gneE2" to="gneE7"/>
    <trip id="398" depart="844.43" from="gneE2" to="e9"/>
    <trip id="399" depart="846.55" from="e5" to="gneE12"/>
    <trip id="400" depart="848.67" from="gneE11" to="gneE1"/>
    <trip id="401" depart="850.79" from="e5" to="e7"/>
    <trip id="402" depart="852.91" from="gneE3" to="e12"/>
    <trip id="403" depart="855.04" from="e7" to="e13"/>
    <trip id="404" depart="857.16" from="gneE7" to="gneE2"/>
    <trip id="405" depart="859.28" from="e11" to="gneE1"/>
    <trip id="406" depart="861.40" from="e7" to="gneE6"/>
    <trip id="407" depart="863.52" from="e2" to="gneE2"/>
    <trip id="408" depart="865.64" from="e12" to="e12"/>
    <trip id="409" depart="867.77" from="e5" to="e3"/>
    <trip id="410" depart="869.89" from="e6" to="e9"/>
    <trip id="411" depart="872.01" from="e14" to="gneE2"/>
    <trip id="412" depart="874.13" from="gneE2" to="gneE7"/>
    <trip id="413" depart="876.25" from="e14" to="e9"/>
    <trip id="414" depart="878.37" from="gneE9" to="e12"/>
    <trip id="415" depart="880.50" from="gneE12" to="e6"/>
    <trip id="416" depart="882.62" from="gneE10" to="gneE7"/>
    <trip id="417" depart="884.74" from="gneE9" to="e6"/>
    <trip id="418" depart="886.86" from="e6" to="gneE11"/>
    <trip id="419" depart="888.98" from="gneE2" to="gneE4"/>
    <trip id="420" depart="891.10" from="gneE12" to="gneE12"/>
    <trip id="421" depart="893.23" from="gneE8" to="e9"/>
    <trip id="422" depart="895.35" from="gneE8" to="gneE2"/>
    <trip id="423" depart="897.47" from="e6" to="gneE5"/>
    <trip id="424" depart="899.59" from="gneE5" to="e10"/>
    <trip id="425" depart="901.71" from="gneE10" to="gneE12"/>
    <trip id="426" depart="903.83" from="gneE6" to="gneE7"/>
    <trip id="427" depart="905.96" from="gneE7" to="e9"/>
    <trip id="428" depart="908.08" from="e10" to="e11"/>
    <trip id="429" depart="910.20" from="gneE8" to="gneE6"/>
    <trip id="430" depart="912.32" from="gneE4" to="gneE2"/>
    <trip id="431" depart="914.44" from="gneE3" to="gneE1"/>
    <trip id="432" depart="916.56" from="gneE12" to="e10"/>
    <trip id="433" depart="918.69" from="gneE12" to="e8"/>
    <trip id="434" depart="920.81" from="e13" to="gneE10"/>
    <trip id="435" depart="922.93" from="gneE6" to="gneE12"/>
    <trip id="436" depart="925.05" from="e8" to="gneE1"/>
    <trip id="437" depart="927.17" from="e7" to="gneE1"/>
    <trip id="438" depart="929.29" from="gneE1" to="gneE4"/>
    <trip id="439" depart="931.42" from="e14" to="e8"/>
    <trip id="440" depart="933.54" from="e11" to="gneE10"/>
    <trip id="441" depart="935.66" from="gneE11" to="e11"/>
    <trip id="442" depart="937.78" from="e8" to="gneE12"/>
    <trip id="443" depart="939.90" from="e5" to="e5"/>
    <trip id="444" depart="942.02" from="gneE8" to="gneE1"/>
    <trip id="445" depart="944.15" from="e5" to="gneE3"/>
    <trip id="446" depart="946.27" from="e8" to="gneE2"/>
    <trip id="447" depart="948.39" from="gneE10" to="gneE1"/>
    <trip id="448" depart="950.51" from="e3" to="e9"/>
    <trip id="449" depart="952.63" from="e7" to="gneE8"/>
    <trip id="450" depart="954.75" from="gneE6" to="e14"/>
    <trip id="451" depart="956.88" from="e11" to="gneE1"/>
    <trip id="452" depart="959.00" from="gneE5" to="gneE8"/>
    <trip id="453" depart="961.12" from="e6" to="e2"/>
    <trip id="454" depart="963.24" from="e12" to="gneE4"/>
    <trip id="455" depart="965.36" from="gneE2" to="e8"/>
    <trip id="456" depart="967.48" from="e9" to="gneE5"/>
    <trip id="457" depart="969.61" from="e7" to="gneE1"/>
    <trip id="458" depart="971.73" from="gneE2" to="gneE7"/>
    <trip id="459" depart="973.85" from="gneE1" to="e10"/>
    <trip id="460" depart="975.97" from="e3" to="e11"/>
    <trip id="461" depart="978.09" from="gneE4" to="e3"/>
    <trip id="462" depart="980.21" from="gneE10" to="gneE10"/>
    <trip id="463" depart="982.34" from="gneE12" to="e6"/>
    <trip id="464" depart="984.46" from="gneE2" to="e6"/>
    <trip id="465" depart="986.58" from="e10" to="gneE2"/>
    <trip id="466" depart="988.70" from="e14" to="e13"/>
    <trip id="467" depart="990.82" from="gneE7" to="e12"/>
    <trip id="468" depart="992.94" from="e12" to="gneE5"/>
    <trip id="469" depart="995.07" from="gneE5" to="gneE8"/>
    <trip id="470" depart="997.19" from="gneE3" to="e7"/>
    <trip id="471" depart="999.31" from="gneE1" to="e3"/>
    <trip id="472" depart="1001.43" from="gneE11" to="e3"/>
    <trip id="473" depart="1003.55" from="gneE10" to="gneE8"/>
    <trip id="474" depart="1005.67" from="e13" to="gneE8"/>
    <trip id="475" depart="1007.80" from="gneE1" to="e5"/>
    <trip id="476" depart="1009.92" from="e8" to="gneE10"/>
    <trip id="477" depart="1012.04" from="gneE9" to="gneE3"/>
    <trip id="478" depart="1014.16" from="e2" to="e13"/>
    <trip id="479" depart="1016.28" from="gneE2" to="e8"/>
    <trip id="480" depart="1018.40" from="e10" to="gneE8"/>
    <trip id="481" depart="1020.53" from="e2" to="e8"/>
    <trip id="482" depart="1022.65" from="gneE3" to="e14"/>
    <trip id="483" depart="1024.77" from="gneE3" to="gneE11"/>
    <trip id="484" depart="1026.89" from="e12" to="e13"/>
    <trip id="485" depart="1029.01" from="gneE10" to="gneE7"/>
    <trip id="486" depart="1031.13" from="e6" to="e12"/>
    <trip id="487" depart="1033.26" from="e5" to="e10"/>
    <trip id="488" depart="1035.38" from="gneE1" to="e7"/>
    <trip id="489" depart="1037.50" from="e10" to="e9"/>
    <trip id="490" depart="1039.62" from="gneE12" to="gneE7"/>
    <trip id="491" depart="1041.74" from="e8" to="gneE5"/>
    <trip id="492" depart="1043.87" from="gneE4" to="e13"/>
    <trip id="493" depart="1045.99" from="e2" to="e3"/>
    <trip id="494" depart="1048.11" from="gneE6" to="e3"/>
    <trip id="495" depart="1050.23" from="e13" to="e14"/>
    <trip id="496" depart="1052.35" from="e3" to="e12"/>
    <trip id="497" depart="1054.47" from="e7" to="e12"/>
    <trip id="498" depart="1056.60" from="e10" to="gneE1"/>
    <trip id="499" depart="1058.72" from="gneE10" to="e3"/>
    <trip id="500" depart="1060.84" from="e5" to="gneE3"/>
    <trip id="501" depart="1062.96" from="gneE9" to="e10"/>
    <trip id="502" depart="1065.08" from="e11" to="gneE5"/>
    <trip id="503" depart="1067.20" from="e6" to="gneE5"/>
    <trip id="504" depart="1069.33" from="e3" to="e5"/>
    <trip id="505" depart="1071.45" from="gneE8" to="gneE9"/>
    <trip id="506" depart="1073.57" from="e10" to="gneE12"/>
    <trip id="507" depart="1075.69" from="e8" to="gneE8"/>
    <trip id="508" depart="1077.81" from="gneE11" to="gneE4"/>