<?xml version="1.0" encoding="UTF-8"?>
<!-- generated on 2020-11-13 13:57:18.815638 by simple-gym.py UNKNOWN
  options: 
-->
<routes xmlns:xsi="http://www.w3.org/2001/XMLSchema-instance" xsi:noNamespaceSchemaLocation="http://sumo.dlr.de/xsd/routes_file.xsd">
    <trip id="0" depart="0.00" from="e13" to="e12"/>
    <trip id="1" depart="12.00" from="gneE3" to="e9"/>
    <trip id="2" depart="24.00" from="e14" to="e9"/>
    <trip id="3" depart="36.00" from="e10" to="e14"/>
    <trip id="4" depart="48.00" from="gneE9" to="e13"/>
    <trip id="5" depart="60.00" from="e9" to="gneE4"/>
    <trip id="6" depart="72.00" from="e12" to="gneE2"/>
    <trip id="7" depart="84.00" from="e10" to="e13"/>
    <trip id="8" depart="96.00" from="gneE9" to="gneE5"/>
    <trip id="9" depart="108.00" from="gneE3" to="e10"/>
    <trip id="10" depart="120.00" from="e14" to="e12"/>
    <trip id="11" depart="132.00" from="e12" to="gneE11"/>
    <trip id="12" depart="144.00" from="gneE1" to="gneE3"/>
    <trip id="13" depart="156.00" from="gneE9" to="e8"/>
    <trip id="14" depart="168.00" from="e3" to="gneE11"/>
    <trip id="15" depart="180.00" from="e10" to="e12"/>
    <trip id="16" depart="192.00" from="e2" to="e7"/>
    <trip id="17" depart="204.00" from="e3" to="gneE9"/>
    <trip id="18" depart="216.00" from="gneE9" to="e13"/>
    <trip id="19" depart="228.00" from="e5" to="e10"/>
    <trip id="20" depart="240.00" from="gneE2" to="e11"/>
    <trip id="21" depart="252.00" from="e7" to="e10"/>
    <trip id="22" depart="264.00" from="gneE11" to="gneE12"/>
    <trip id="23" depart="276.00" from="gneE12" to="gneE5"/>
    <trip id="24" depart="288.00" from="gneE9" to="e11"/>
    <trip id="25" depart="300.00" from="gneE8" to="e3"/>
    <trip id="26" depart="312.00" from="gneE9" to="gneE3"/>
    <trip id="27" depart="324.00" from="gneE8" to="gneE9"/>
    <trip id="28" depart="336.00" from="e11" to="gneE5"/>
    <trip id="29" depart="348.00" from="gneE12" to="e5"/>
    <trip id="30" depart="360.00" from="gneE9" to="e5"/>
    <trip id="31" depart="372.00" from="e10" to="e10"/>
    <trip id="32" depart="384.00" from="e13" to="gneE3"/>
    <trip id="33" depart="396.00" from="gneE1" to="e10"/>
    <trip id="34" depart="408.00" from="e10" to="e5"/>
    <trip id="35" depart="420.00" from="gneE3" to="gneE3"/>
    <trip id="36" depart="432.00" from="gneE10" to="e9"/>
    <trip id="37" depart="444.00" from="gneE2" to="gneE8"/>
    <trip id="38" depart="456.00" from="gneE5" to="e5"/>
    <trip id="39" depart="468.00" from="gneE7" to="e10"/>
    <trip id="40" depart="480.00" from="gneE11" to="gneE7"/>
    <trip id="41" depart="492.00" from="e13" to="e9"/>
    <trip id="42" depart="504.00" from="e10" to="gneE2"/>
    <trip id="43" depart="516.00" from="gneE6" to="gneE9"/>
    <trip id="44" depart="528.00" from="gneE9" to="e11"/>
    <trip id="45" depart="540.00" from="e5" to="gneE3"/>
    <trip id="46" depart="552.00" from="e9" to="gneE8"/>
    <trip id="47" depart="564.00" from="e10" to="e11"/>
    <trip id="48" depart="576.00" from="gneE9" to="gneE4"/>
    <trip id="49" depart="588.00" from="e9" to="gneE9"/>
    <trip id="50" depart="600.00" from="e2" to="gneE6"/>
    <trip id="51" depart="612.00" from="gneE7" to="gneE10"/>
    <trip id="52" depart="624.00" from="gneE10" to="gneE12"/>
    <trip id="53" depart="636.00" from="gneE7" to="gneE12"/>
    <trip id="54" depart="648.00" from="e11" to="e11"/>
    <trip id="55" depart="660.00" from="e10" to="e10"/>
    <trip id="56" depart="672.00" from="e6" to="e10"/>
    <trip id="57" depart="684.00" from="e11" to="gneE7"/>
    <trip id="58" depart="696.00" from="gneE2" to="gneE9"/>
    <trip id="59" depart="708.00" from="gneE9" to="e11"/>
    <trip id="60" depart="720.00" from="e14" to="gneE9"/>
    <trip id="61" depart="732.00" from="e7" to="gneE3"/>
    <trip id="62" depart="744.00" from="gneE8" to="e10"/>
    <trip id="63" depart="756.00" from="e10" to="gneE10"/>
    <trip id="64" depart="768.00" from="e11" to="e2"/>
    <trip id="65" depart="780.00" from="e10" to="gneE9"/>
    <trip id="66" depart="792.00" from="e2" to="e10"/>
    <trip id="67" depart="804.00" from="gneE1" to="gneE7"/>
    <trip id="68" depart="816.00" from="e2" to="e10"/>
    <trip id="69" depart="828.00" from="gneE8" to="e10"/>
    <trip id="70" depart="840.00" from="gneE11" to="e11"/>
    <trip id="71" depart="852.00" from="gneE6" to="e10"/>
    <trip id="72" depart="864.00" from="gneE6" to="e2"/>
    <trip id="73" depart="876.00" from="e5" to="gneE10"/>
    <trip id="74" depart="888.00" from="gneE6" to="e14"/>
    <trip id="75" depart="900.00" from="e3" to="gneE9"/>
    <trip id="76" depart="912.00" from="gneE9" to="e3"/>
    <trip id="77" depart="924.00" from="e10" to="e11"/>
    <trip id="78" depart="936.00" from="gneE2" to="e12"/>
    <trip id="79" depart="948.00" from="gneE9" to="e3"/>
    <trip id="80" depart="960.00" from="gneE7" to="e11"/>
    <trip id="81" depart="972.00" from="gneE4" to="e13"/>
    <trip id="82" depart="984.00" from="gneE7" to="e6"/>
    <trip id="83" depart="996.00" from="gneE4" to="e13"/>
    <trip id="84" depart="1008.00" from="e9" to="gneE5"/>
    <trip id="85" depart="1020.00" from="gneE8" to="e8"/>
    <trip id="86" depart="1032.00" from="e10" to="e12"/>
    <trip id="87" depart="1044.00" from="e10" to="gneE5"/>
    <trip id="88" depart="1056.00" from="e10" to="e14"/>
    <trip id="89" depart="1068.00" from="e10" to="gneE2"/>
    <trip id="90" depart="1080.00" from="e10" to="gneE10"/>
    <trip id="91" depart="1092.00" from="gneE9" to="gneE9"/>
    <trip id="92" depart="1104.00" from="e8" to="e12"/>
    <trip id="93" depart="1116.00" from="gneE10" to="gneE9"/>
    <trip id="94" depart="1128.00" from="e2" to="gneE4"/>
    <trip id="95" depart="1140.00" from="gneE10" to="gneE7"/>
    <trip id="96" depart="1152.00" from="gneE4" to="e12"/>
    <trip id="97" depart="1164.00" from="e8" to="gneE5"/>
    <trip id="98" depart="1176.00" from="e6" to="gneE11"/>
    <trip id="99" depart="1188.00" from="e3" to="gneE1"/>
    <trip id="100" depart="1200.00" from="e2" to="gneE8"/>
    <trip id="101" depart="1212.00" from="gneE5" to="e10"/>
    <trip id="102" depart="1224.00" from="e14" to="e9"/>
    <trip id="103" depart="1236.00" from="e2" to="e14"/>
    <trip id="104" depart="1248.00" from="e13" to="e8"/>
    <trip id="105" depart="1260.00" from="e10" to="gneE5"/>
    <trip id="106" depart="1272.00" from="e12" to="gneE9"/>
    <trip id="107" depart="1284.00" from="e14" to="e2"/>
    <trip id="108" depart="1296.00" from="e2" to="e7"/>
    <trip id="109" depart="1308.00" from="gneE9" to="gneE9"/>
    <trip id="110" depart="1320.00" from="e10" to="e8"/>
    <trip id="111" depart="1332.00" from="e13" to="gneE3"/>
    <trip id="112" depart="1344.00" from="gneE8" to="gneE4"/>
    <trip id="113" depart="1356.00" from="e10" to="e10"/>
    <trip id="114" depart="1368.00" from="gneE9" to="e12"/>
    <trip id="115" depart="1380.00" from="gneE9" to="gneE9"/>
    <trip id="116" depart="1392.00" from="e3" to="e2"/>
    <trip id="117" depart="1404.00" from="e11" to="e8"/>
    <trip id="118" depart="1416.00" from="gneE6" to="e12"/>
    <trip id="119" depart="1428.00" from="gneE9" to="e6"/>
    <trip id="120" depart="1440.00" from="e12" to="e11"/>
    <trip id="121" depart="1452.00" from="e9" to="gneE8"/>
    <trip id="122" depart="1464.00" from="gneE9" to="gneE12"/>
    <trip id="123" depart="1476.00" from="gneE8" to="gneE11"/>
    <trip id="124" depart="1488.00" from="gneE9" to="e3"/>
    <trip id="125" depart="1500.00" from="gneE8" to="gneE9"/>
    <trip id="126" depart="1512.00" from="gneE8" to="gneE8"/>
    <trip id="127" depart="1524.00" from="e9" to="e10"/>
    <trip id="128" depart="1536.00" from="e10" to="gneE10"/>
    <trip id="129" depart="1548.00" from="e10" to="e14"/>
    <trip id="130" depart="1560.00" from="gneE6" to="gneE3"/>
    <trip id="131" depart="1572.00" from="gneE9" to="e12"/>
    <trip id="132" depart="1584.00" from="e13" to="e11"/>
    <trip id="133" depart="1596.00" from="gneE4" to="e10"/>
    <trip id="134" depart="1608.00" from="gneE9" to="gneE11"/>
    <trip id="135" depart="1620.00" from="e9" to="gneE7"/>
    <trip id="136" depart="1632.00" from="gneE8" to="e10"/>
    <trip id="137" depart="1644.00" from="gneE6" to="e7"/>
    <trip id="138" depart="1656.00" from="e10" to="e12"/>
    <trip id="139" depart="1668.00" from="gneE9" to="e7"/>
    <trip id="140" depart="1680.00" from="e10" to="e11"/>
    <trip id="141" depart="1692.00" from="gneE8" to="gneE11"/>
    <trip id="142" depart="1704.00" from="gneE3" to="gneE3"/>
    <trip id="143" depart="1716.00" from="e11" to="e6"/>
    <trip id="144" depart="1728.00" from="e3" to="gneE5"/>
    <trip id="145" depart="1740.00" from="gneE8" to="gneE6"/>
    <trip id="146" depart="1752.00" from="gneE3" to="e11"/>
    <trip id="147" depart="1764.00" from="e7" to="gneE6"/>
    <trip id="148" depart="1776.00" from="e2" to="gneE10"/>
    <trip id="149" depart="1788.00" from="e10" to="e9"/>
    <trip id="150" depart="1800.00" from="e10" to="e10"/>
    <trip id="151" depart="1812.00" from="e3" to="gneE9"/>
    <trip id="152" depart="1824.00" from="gneE1" to="gneE8"/>
    <trip id="153" depart="1836.00" from="gneE7" to="gneE7"/>
    <trip id="154" depart="1848.00" from="gneE2" to="gneE2"/>
    <trip id="155" depart="1860.00" from="gneE9" to="e3"/>
    <trip id="156" depart="1872.00" from="e10" to="e12"/>
    <trip id="157" depart="1884.00" from="gneE12" to="gneE8"/>
    <trip id="158" depart="1896.00" from="gneE6" to="e11"/>
    <trip id="159" depart="1908.00" from="gneE11" to="gneE8"/>
    <trip id="160" depart="1920.00" from="gneE7" to="gneE12"/>
    <trip id="161" depart="1932.00" from="gneE2" to="gneE7"/>
    <trip id="162" depart="1944.00" from="gneE5" to="e5"/>
    <trip id="163" depart="1956.00" from="gneE2" to="e13"/>
    <trip id="164" depart="1968.00" from="gneE6" to="gneE5"/>
    <trip id="165" depart="1980.00" from="gneE11" to="gneE9"/>
    <trip id="166" depart="1992.00" from="gneE7" to="e8"/>
    <trip id="167" depart="2004.00" from="gneE5" to="gneE7"/>
    <trip id="168" depart="2016.00" from="e14" to="e11"/>
    <trip id="169" depart="2028.00" from="gneE2" to="gneE2"/>
    <trip id="170" depart="2040.00" from="e10" to="gneE8"/>
    <trip id="171" depart="2052.00" from="gneE9" to="e5"/>
    <trip id="172" depart="2064.00" from="gneE8" to="gneE7"/>
    <trip id="173" depart="2076.00" from="gneE7" to="gneE5"/>
    <trip id="174" depart="2088.00" from="e3" to="e12"/>
    <trip id="175" depart="2100.00" from="gneE5" to="e6"/>
    <trip id="176" depart="2112.00" from="gneE9" to="e7"/>
    <trip id="177" depart="2124.00" from="gneE9" to="gneE7"/>
    <trip id="178" depart="2136.00" from="e10" to="gneE9"/>
    <trip id="179" depart="2148.00" from="e11" to="gneE8"/>
    <trip id="180" depart="2160.00" from="e11" to="gneE8"/>
    <trip id="181" depart="2172.00" from="gneE8" to="gneE6"/>
    <trip id="182" depart="2184.00" from="e10" to="e5"/>
    <trip id="183" depart="2196.00" from="gneE5" to="gneE9"/>
    <trip id="184" depart="2208.00" from="e10" to="gneE7"/>
    <trip id="185" depart="2220.00" from="gneE4" to="gneE6"/>
    <trip id="186" depart="2232.00" from="gneE1" to="gneE5"/>
    <trip id="187" depart="2244.00" from="gneE4" to="gneE9"/>
    <trip id="188" depart="2256.00" from="gneE3" to="e8"/>
    <trip id="189" depart="2268.00" from="e14" to="e10"/>
    <trip id="190" depart="2280.00" from="gneE6" to="gneE8"/>
    <trip id="191" depart="2292.00" from="gneE8" to="e7"/>
    <trip id="192" depart="2304.00" from="gneE11" to="gneE8"/>
    <trip id="193" depart="2316.00" from="gneE10" to="gneE3"/>
    <trip id="194" depart="2328.00" from="e8" to="e12"/>
    <trip id="195" depart="2340.00" from="e10" to="gneE8"/>
    <trip id="196" depart="2352.00" from="e10" to="gneE7"/>
    <trip id="197" depart="2364.00" from="e7" to="e11"/>
    <trip id="198" depart="2376.00" from="e10" to="gneE1"/>
    <trip id="199" depart="2388.00" from="gneE12" to="e10"/>
    <trip id="200" depart="2400.00" from="e8" to="e14"/>
    <trip id="201" depart="2412.00" from="e11" to="e10"/>
    <trip id="202" depart="2424.00" from="gneE7" to="gneE9"/>
    <trip id="203" depart="2436.00" from="gneE8" to="e10"/>
    <trip id="204" depart="2448.00" from="gneE12" to="e8"/>
    <trip id="205" depart="2460.00" from="e7" to="e6"/>
    <trip id="206" depart="2472.00" from="gneE5" to="e14"/>
    <trip id="207" depart="2484.00" from="e10" to="e10"/>
    <trip id="208" depart="2496.00" from="e10" to="gneE6"/>
    <trip id="209" depart="2508.00" from="e10" to="e10"/>
    <trip id="210" depart="2520.00" from="gneE9" to="e10"/>
    <trip id="211" depart="2532.00" from="e11" to="e10"/>
    <trip id="212" depart="2544.00" from="e14" to="e10"/>
    <trip id="213" depart="2556.00" from="gneE8" to="gneE3"/>
    <trip id="214" depart="2568.00" from="e10" to="gneE8"/>
    <trip id="215" depart="2580.00" from="e12" to="e5"/>
    <trip id="216" depart="2592.00" from="gneE8" to="e13"/>
    <trip id="217" depart="2604.00" from="gneE10" to="gneE8"/>
    <trip id="218" depart="2616.00" from="e10" to="gneE8"/>
    <trip id="219" depart="2628.00" from="gneE9" to="gneE2"/>
    <trip id="220" depart="2640.00" from="gneE6" to="gneE9"/>
    <trip id="221" depart="2652.00" from="gneE1" to="e11"/>
    <trip id="222" depart="2664.00" from="e7" to="gneE8"/>
    <trip id="223" depart="2676.00" from="gneE4" to="e12"/>
    <trip id="224" depart="2688.00" from="gneE7" to="e10"/>
    <trip id="225" depart="2700.00" from="gneE9" to="e11"/>
    <trip id="226" depart="2712.00" from="e8" to="gneE1"/>
    <trip id="227" depart="2724.00" from="gneE2" to="e9"/>
    <trip id="228" depart="2736.00" from="gneE8" to="gneE8"/>
    <trip id="229" depart="2748.00" from="gneE8" to="e10"/>
    <trip id="230" depart="2760.00" from="gneE6" to="e10"/>
    <trip id="231" depart="2772.00" from="gneE8" to="gneE9"/>
    <trip id="232" depart="2784.00" from="gneE6" to="gneE9"/>
    <trip id="233" depart="2796.00" from="e10" to="e10"/>
    <trip id="234" depart="2808.00" from="e13" to="gneE4"/>
    <trip id="235" depart="2820.00" from="gneE10" to="e14"/>
    <trip id="236" depart="2832.00" from="e12" to="e10"/>
    <trip id="237" depart="2844.00" from="e12" to="gneE6"/>
    <trip id="238" depart="2856.00" from="e10" to="e8"/>
    <trip id="239" depart="2868.00" from="gneE12" to="e8"/>
    <trip id="240" depart="2880.00" from="gneE10" to="e12"/>
    <trip id="241" depart="2892.00" from="e6" to="e3"/>
    <trip id="242" depart="2904.00" from="gneE1" to="gneE9"/>
    <trip id="243" depart="2916.00" from="gneE12" to="gneE12"/>
    <trip id="244" depart="2928.00" from="e6" to="gneE11"/>
    <trip id="245" depart="2940.00" from="gneE9" to="e8"/>
    <trip id="246" depart="2952.00" from="gneE9" to="e10"/>
    <trip id="247" depart="2964.00" from="e8" to="gneE2"/>
    <trip id="248" depart="2976.00" from="e10" to="e2"/>
    <trip id="249" depart="2988.00" from="gneE4" to="gneE8"/>
    <trip id="250" depart="3000.00" from="gneE8" to="gneE12"/>
    <trip id="251" depart="3012.00" from="gneE9" to="gneE7"/>
    <trip id="252" depart="3024.00" from="e10" to="e10"/>
    <trip id="253" depart="3036.00" from="gneE7" to="e11"/>
    <trip id="254" depart="3048.00" from="e10" to="e10"/>
    <trip id="255" depart="3060.00" from="gneE10" to="gneE7"/>
    <trip id="256" depart="3072.00" from="gneE6" to="e12"/>
    <trip id="257" depart="3084.00" from="gneE8" to="gneE5"/>
    <trip id="258" depart="3096.00" from="e11" to="e13"/>
    <trip id="259" depart="3108.00" from="gneE9" to="e13"/>
    <trip id="260" depart="3120.00" from="e5" to="e10"/>
    <trip id="261" depart="3132.00" from="e11" to="e7"/>
    <trip id="262" depart="3144.00" from="gneE8" to="e8"/>
    <trip id="263" depart="3156.00" from="gneE1" to="e7"/>
    <trip id="264" depart="3168.00" from="gneE7" to="gneE2"/>
    <trip id="265" depart="3180.00" from="e11" to="e3"/>
    <trip id="266" depart="3192.00" from="e11" to="e2"/>
    <trip id="267" depart="3204.00" from="gneE10" to="e11"/>
    <trip id="268" depart="3216.00" from="gneE3" to="gneE9"/>
    <trip id="269" depart="3228.00" from="gneE8" to="e3"/>
    <trip id="270" depart="3240.00" from="gneE5" to="gneE7"/>
    <trip id="271" depart="3252.00" from="e2" to="e10"/>
    <trip id="272" depart="3264.00" from="e11" to="e13"/>
    <trip id="273" depart="3276.00" from="e9" to="gneE10"/>
    <trip id="274" depart="3288.00" from="gneE8" to="e9"/>
    <trip id="275" depart="3300.00" from="e9" to="gneE3"/>
    <trip id="276" depart="3312.00" from="gneE12" to="e10"/>
    <trip id="277" depart="3324.00" from="e10" to="gneE8"/>
    <trip id="278" depart="3336.00" from="e5" to="e7"/>
    <trip id="279" depart="3348.00" from="e11" to="gneE6"/>
    <trip id="280" depart="3360.00" from="gneE12" to="gneE6"/>
    <trip id="281" depart="3372.00" from="e5" to="e13"/>
    <trip id="282" depart="3384.00" from="gneE10" to="e2"/>
    <trip id="283" depart="3396.00" from="gneE9" to="gneE4"/>
    <trip id="284" depart="3408.00" from="gneE9" to="e10"/>
    <trip id="285" depart="3420.00" from="gneE5" to="e7"/>
    <trip id="286" depart="3432.00" from="gneE9" to="gneE9"/>
    <trip id="287" depart="3444.00" from="gneE5" to="e5"/>
    <trip id="288" depart="3456.00" from="gneE5" to="e9"/>
    <trip id="289" depart="3468.00" from="e12" to="gneE9"/>
    <trip id="290" depart="3480.00" from="e10" to="gneE9"/>
    <trip id="291" depart="3492.00" from="gneE5" to="e5"/>
    <trip id="292" depart="3504.00" from="e14" to="gneE9"/>
    <trip id="293" depart="3516.00" from="e11" to="gneE9"/>
    <trip id="294" depart="3528.00" from="e10" to="gneE12"/>
    <trip id="295" depart="3540.00" from="e13" to="gneE9"/>
    <trip id="296" depart="3552.00" from="e8" to="gneE9"/>
    <trip id="297" depart="3564.00" from="gneE9" to="gneE3"/>
    <trip id="298" depart="3576.00" from="gneE8" to="gneE8"/>
    <trip id="299" depart="3588.00" from="gneE1" to="gneE10"/>
</routes>
