<?xml version="1.0" encoding="UTF-8"?>
<!-- generated on 2020-11-20 00:17:46.858661 by ray-train.py UNKNOWN
  options: 
-->
<routes xmlns:xsi="http://www.w3.org/2001/XMLSchema-instance" xsi:noNamespaceSchemaLocation="http://sumo.dlr.de/xsd/routes_file.xsd">
    <trip id="0" depart="0.00" from="gneE2" to="gneE9"/>
    <trip id="1" depart="5.83" from="gneE12" to="e6"/>
    <trip id="2" depart="11.67" from="gneE11" to="e10"/>
    <trip id="3" depart="17.50" from="gneE9" to="gneE11"/>
    <trip id="4" depart="23.33" from="gneE1" to="e6"/>
    <trip id="5" depart="29.16" from="e9" to="e6"/>
    <trip id="6" depart="35.00" from="e2" to="e6"/>
    <trip id="7" depart="40.83" from="gneE3" to="gneE8"/>
    <trip id="8" depart="46.66" from="gneE1" to="e12"/>
    <trip id="9" depart="52.49" from="e11" to="e14"/>
    <trip id="10" depart="58.33" from="e12" to="e6"/>
    <trip id="11" depart="64.16" from="gneE3" to="e12"/>
    <trip id="12" depart="69.99" from="e8" to="gneE4"/>
    <trip id="13" depart="75.82" from="e2" to="e11"/>
    <trip id="14" depart="81.66" from="gneE1" to="gneE8"/>
    <trip id="15" depart="87.49" from="gneE5" to="gneE6"/>
    <trip id="16" depart="93.32" from="e6" to="e3"/>
    <trip id="17" depart="99.15" from="gneE7" to="e12"/>
    <trip id="18" depart="104.99" from="gneE10" to="e3"/>
    <trip id="19" depart="110.82" from="e11" to="gneE6"/>
    <trip id="20" depart="116.65" from="e10" to="gneE3"/>
    <trip id="21" depart="122.48" from="gneE3" to="e10"/>
    <trip id="22" depart="128.32" from="e14" to="e2"/>
    <trip id="23" depart="134.15" from="gneE5" to="gneE12"/>
    <trip id="24" depart="139.98" from="gneE10" to="gneE9"/>
    <trip id="25" depart="145.81" from="e3" to="e14"/>
    <trip id="26" depart="151.65" from="e2" to="e9"/>
    <trip id="27" depart="157.48" from="gneE6" to="e9"/>
    <trip id="28" depart="163.31" from="e10" to="gneE5"/>
    <trip id="29" depart="169.15" from="gneE1" to="gneE2"/>
    <trip id="30" depart="174.98" from="e11" to="gneE4"/>
    <trip id="31" depart="180.81" from="gneE7" to="e7"/>
    <trip id="32" depart="186.64" from="e8" to="e9"/>
    <trip id="33" depart="192.48" from="gneE11" to="e2"/>
    <trip id="34" depart="198.31" from="gneE9" to="e2"/>
    <trip id="35" depart="204.14" from="gneE3" to="gneE12"/>
    <trip id="36" depart="209.97" from="e13" to="gneE2"/>
    <trip id="37" depart="215.81" from="e5" to="gneE1"/>
    <trip id="38" depart="221.64" from="e6" to="gneE12"/>
    <trip id="39" depart="227.47" from="e13" to="gneE12"/>
    <trip id="40" depart="233.30" from="gneE5" to="e11"/>
    <trip id="41" depart="239.14" from="gneE10" to="e9"/>
    <trip id="42" depart="244.97" from="e13" to="gneE5"/>
    <trip id="43" depart="250.80" from="e14" to="e2"/>
    <trip id="44" depart="256.63" from="e2" to="e7"/>
    <trip id="45" depart="262.47" from="e8" to="gneE12"/>
    <trip id="46" depart="268.30" from="e6" to="e6"/>
    <trip id="47" depart="274.13" from="gneE7" to="gneE6"/>
    <trip id="48" depart="279.96" from="gneE8" to="e10"/>
    <trip id="49" depart="285.80" from="gneE1" to="e11"/>
    <trip id="50" depart="291.63" from="e3" to="gneE1"/>
    <trip id="51" depart="297.46" from="e3" to="e6"/>
    <trip id="52" depart="303.29" from="gneE9" to="e12"/>
    <trip id="53" depart="309.13" from="e14" to="gneE9"/>
    <trip id="54" depart="314.96" from="e3" to="e11"/>
    <trip id="55" depart="320.79" from="gneE11" to="e6"/>
    <trip id="56" depart="326.62" from="e10" to="gneE1"/>
    <trip id="57" depart="332.46" from="e13" to="gneE8"/>
    <trip id="58" depart="338.29" from="gneE5" to="e7"/>
    <trip id="59" depart="344.12" from="gneE9" to="e13"/>
    <trip id="60" depart="349.96" from="gneE9" to="e9"/>
    <trip id="61" depart="355.79" from="gneE4" to="gneE4"/>
    <trip id="62" depart="361.62" from="gneE11" to="e3"/>
    <trip id="63" depart="367.45" from="e7" to="e5"/>
    <trip id="64" depart="373.29" from="gneE11" to="e3"/>
    <trip id="65" depart="379.12" from="gneE7" to="gneE4"/>
    <trip id="66" depart="384.95" from="e6" to="gneE8"/>
    <trip id="67" depart="390.78" from="e10" to="gneE2"/>
    <trip id="68" depart="396.62" from="e3" to="gneE1"/>
    <trip id="69" depart="402.45" from="e5" to="gneE3"/>
    <trip id="70" depart="408.28" from="e11" to="gneE10"/>
    <trip id="71" depart="414.11" from="e5" to="e9"/>
    <trip id="72" depart="419.95" from="gneE1" to="gneE12"/>
    <trip id="73" depart="425.78" from="e9" to="e2"/>
    <trip id="74" depart="431.61" from="e5" to="gneE10"/>
    <trip id="75" depart="437.44" from="e3" to="gneE11"/>
    <trip id="76" depart="443.28" from="e7" to="gneE8"/>
    <trip id="77" depart="449.11" from="e9" to="e10"/>
    <trip id="78" depart="454.94" from="gneE2" to="gneE6"/>
    <trip id="79" depart="460.77" from="e10" to="gneE11"/>
    <trip id="80" depart="466.61" from="gneE4" to="gneE11"/>
    <trip id="81" depart="472.44" from="e10" to="gneE4"/>
    <trip id="82" depart="478.27" from="gneE12" to="e6"/>
    <trip id="83" depart="484.10" from="e11" to="gneE10"/>
    <trip id="84" depart="489.94" from="e13" to="gneE1"/>
    <trip id="85" depart="495.77" from="e8" to="gneE4"/>
    <trip id="86" depart="501.60" from="e14" to="e11"/>
    <trip id="87" depart="507.44" from="e14" to="gneE5"/>
    <trip id="88" depart="513.27" from="gneE6" to="gneE10"/>
    <trip id="89" depart="519.10" from="gneE11" to="e8"/>
    <trip id="90" depart="524.93" from="gneE9" to="gneE9"/>
    <trip id="91" depart="530.77" from="e2" to="gneE6"/>
    <trip id="92" depart="536.60" from="gneE10" to="gneE8"/>
    <trip id="93" depart="542.43" from="e3" to="e2"/>
    <trip id="94" depart="548.26" from="e12" to="e8"/>
    <trip id="95" depart="554.10" from="e5" to="e11"/>
    <trip id="96" depart="559.93" from="e11" to="e8"/>
    <trip id="97" depart="565.76" from="e2" to="gneE4"/>
    <trip id="98" depart="571.59" from="gneE5" to="e10"/>
    <trip id="99" depart="577.43" from="e10" to="e6"/>
    <trip id="100" depart="583.26" from="e13" to="e9"/>
    <trip id="101" depart="589.09" from="gneE5" to="gneE11"/>
    <trip id="102" depart="594.92" from="e7" to="gneE4"/>
    <trip id="103" depart="600.76" from="e14" to="gneE2"/>
    <trip id="104" depart="606.59" from="gneE7" to="e6"/>
    <trip id="105" depart="612.42" from="gneE10" to="e3"/>
    <trip id="106" depart="618.25" from="gneE4" to="e8"/>
    <trip id="107" depart="624.09" from="e10" to="e12"/>
    <trip id="108" depart="629.92" from="gneE8" to="e2"/>
    <trip id="109" depart="635.75" from="e6" to="e5"/>
    <trip id="110" depart="641.58" from="gneE5" to="gneE11"/>
    <trip id="111" depart="647.42" from="e3" to="gneE4"/>
    <trip id="112" depart="653.25" from="gneE4" to="e10"/>
    <trip id="113" depart="659.08" from="gneE10" to="e13"/>
    <trip id="114" depart="664.92" from="gneE3" to="e13"/>
    <trip id="115" depart="670.75" from="gneE8" to="gneE10"/>
    <trip id="116" depart="676.58" from="e10" to="gneE12"/>
    <trip id="117" depart="682.41" from="e6" to="e8"/>
    <trip id="118" depart="688.25" from="gneE2" to="gneE10"/>
    <trip id="119" depart="694.08" from="gneE12" to="gneE4"/>
    <trip id="120" depart="699.91" from="e14" to="gneE8"/>
    <trip id="121" depart="705.74" from="e5" to="e2"/>
    <trip id="122" depart="711.58" from="gneE3" to="gneE4"/>
    <trip id="123" depart="717.41" from="gneE11" to="gneE6"/>
    <trip id="124" depart="723.24" from="gneE1" to="gneE6"/>
    <trip id="125" depart="729.07" from="gneE11" to="gneE5"/>
    <trip id="126" depart="734.91" from="gneE6" to="gneE8"/>
    <trip id="127" depart="740.74" from="gneE5" to="gneE10"/>
    <trip id="128" depart="746.57" from="gneE9" to="gneE4"/>
    <trip id="129" depart="752.40" from="e10" to="gneE8"/>
    <trip id="130" depart="758.24" from="e2" to="e10"/>
    <trip id="131" depart="764.07" from="gneE3" to="gneE2"/>
    <trip id="132" depart="769.90" from="e14" to="e3"/>
    <trip id="133" depart="775.73" from="e5" to="e10"/>
    <trip id="134" depart="781.57" from="e10" to="e7"/>
    <trip id="135" depart="787.40" from="gneE11" to="e14"/>
    <trip id="136" depart="793.23" from="e6" to="e12"/>
    <trip id="137" depart="799.06" from="gneE2" to="gneE11"/>
    <trip id="138" depart="804.90" from="gneE2" to="e8"/>
    <trip id="139" depart="810.73" from="e10" to="e9"/>
    <trip id="140" depart="816.56" from="gneE7" to="gneE6"/>
    <trip id="141" depart="822.40" from="e8" to="e11"/>
    <trip id="142" depart="828.23" from="gneE2" to="e13"/>
    <trip id="143" depart="834.06" from="gneE9" to="gneE10"/>
    <trip id="144" depart="839.89" from="gneE8" to="gneE3"/>
    <trip id="145" depart="845.73" from="e13" to="gneE5"/>
    <trip id="146" depart="851.56" from="e6" to="gneE1"/>
    <trip id="147" depart="857.39" from="gneE7" to="gneE9"/>
    <trip id="148" depart="863.22" from="e2" to="gneE5"/>
    <trip id="149" depart="869.06" from="e10" to="gneE11"/>
    <trip id="150" depart="874.89" from="gneE5" to="e9"/>
    <trip id="151" depart="880.72" from="e12" to="gneE12"/>
    <trip id="152" depart="886.55" from="gneE11" to="gneE7"/>
    <trip id="153" depart="892.39" from="e2" to="e5"/>
    <trip id="154" depart="898.22" from="e3" to="gneE3"/>
    <trip id="155" depart="904.05" from="e6" to="e11"/>
    <trip id="156" depart="909.88" from="gneE1" to="gneE3"/>
    <trip id="157" depart="915.72" from="e3" to="e5"/>
    <trip id="158" depart="921.55" from="gneE11" to="e8"/>
    <trip id="159" depart="927.38" from="gneE9" to="e8"/>
    <trip id="160" depart="933.21" from="gneE7" to="e6"/>
    <trip id="161" depart="939.05" from="gneE8" to="e7"/>
    <trip id="162" depart="944.88" from="e12" to="gneE1"/>
    <trip id="163" depart="950.71" from="e13" to="gneE1"/>
    <trip id="164" depart="956.54" from="gneE7" to="gneE7"/>
    <trip id="165" depart="962.38" from="gneE11" to="gneE12"/>
    <trip id="166" depart="968.21" from="gneE8" to="e14"/>
    <trip id="167" depart="974.04" from="e10" to="gneE10"/>
    <trip id="168" depart="979.88" from="gneE10" to="e12"/>
    <trip id="169" depart="985.71" from="gneE9" to="e13"/>
    <trip id="170" depart="991.54" from="e12" to="gneE5"/>
    <trip id="171" depart="997.37" from="e6" to="gneE5"/>
    <trip id="172" depart="1003.21" from="gneE2" to="gneE4"/>
    <trip id="173" depart="1009.04" from="e14" to="gneE1"/>
    <trip id="174" depart="1014.87" from="e5" to="gneE9"/>
    <trip id="175" depart="1020.70" from="e13" to="gneE10"/>
    <trip id="176" depart="1026.54" from="gneE9" to="gneE6"/>
    <trip id="177" depart="1032.37" from="gneE9" to="gneE2"/>
    <trip id="178" depart="1038.20" from="gneE8" to="gneE5"/>
    <trip id="179" depart="1044.03" from="e3" to="gneE7"/>
    <trip id="180" depart="1049.87" from="gneE9" to="e12"/>
    <trip id="181" depart="1055.70" from="gneE3" to="e13"/>
    <trip id="182" depart="1061.53" from="gneE9" to="gneE3"/>
    <trip id="183" depart="1067.36" from="gneE2" to="gneE2"/>
    <trip id="184" depart="1073.20" from="e5" to="gneE3"/>
    <trip id="185" depart="1079.03" from="gneE7" to="gneE10"/>
    <trip id="186" depart="1084.86" from="e12" to="gneE5"/>
    <trip id="187" depart="1090.69" from="e12" to="e9"/>
    <trip id="188" depart="1096.53" from="gneE10" to="gneE2"/>
    <trip id="189" depart="1102.36" from="e8" to="e13"/>
    <trip id="190" depart="1108.19" from="gneE9" to="gneE11"/>
    <trip id="191" depart="1114.02" from="gneE10" to="e10"/>
    <trip id="192" depart="1119.86" from="gneE1" to="gneE4"/>
    <trip id="193" depart="1125.69" from="gneE2" to="e11"/>
    <trip id="194" depart="1131.52" from="gneE6" to="e11"/>
    <trip id="195" depart="1137.35" from="e2" to="gneE10"/>
    <trip id="196" depart="1143.19" from="e7" to="gneE11"/>
    <trip id="197" depart="1149.02" from="e8" to="e6"/>
    <trip id="198" depart="1154.85" from="e2" to="e2"/>
    <trip id="199" depart="1160.69" from="gneE1" to="gneE5"/>
    <trip id="200" depart="1166.52" from="e9" to="e14"/>
    <trip id="201" depart="1172.35" from="gneE10" to="gneE11"/>
    <trip id="202" depart="1178.18" from="gneE2" to="e11"/>
    <trip id="203" depart="1184.02" from="e6" to="e6"/>
    <trip id="204" depart="1189.85" from="e14" to="e7"/>
    <trip id="205" depart="1195.68" from="e9" to="gneE6"/>
    <trip id="206" depart="1201.51" from="gneE12" to="gneE1"/>
    <trip id="207" depart="1207.35" from="gneE6" to="e6"/>
    <trip id="208" depart="1213.18" from="gneE12" to="e6"/>
    <trip id="209" depart="1219.01" from="e9" to="gneE10"/>
    <trip id="210" depart="1224.84" from="e8" to="gneE11"/>
    <trip id="211" depart="1230.68" from="e14" to="e5"/>
    <trip id="212" depart="1236.51" from="e2" to="e6"/>
    <trip id="213" depart="1242.34" from="e3" to="gneE7"/>
    <trip id="214" depart="1248.17" from="e9" to="e12"/>
    <trip id="215" depart="1254.01" from="gneE8" to="e3"/>
    <trip id="216" depart="1259.84" from="gneE12" to="gneE9"/>
    <trip id="217" depart="1265.67" from="e10" to="gneE6"/>
    <trip id="218" depart="1271.50" from="gneE8" to="e12"/>
    <trip id="219" depart="1277.34" from="gneE8" to="e13"/>
    <trip id="220" depart="1283.17" from="gneE5" to="e12"/>
    <trip id="221" depart="1289.00" from="gneE11" to="e7"/>
    <trip id="222" depart="1294.83" from="e5" to="gneE4"/>
    <trip id="223" depart="1300.67" from="gneE1" to="e9"/>
    <trip id="224" depart="1306.50" from="e7" to="gneE7"/>
    <trip id="225" depart="1312.33" from="e12" to="e14"/>
    <trip id="226" depart="1318.17" from="e10" to="e2"/>
    <trip id="227" depart="1324.00" from="gneE6" to="gneE1"/>
    <trip id="228" depart="1329.83" from="gneE9" to="gneE1"/>
    <trip id="229" depart="1335.66" from="gneE7" to="e14"/>
    <trip id="230" depart="1341.50" from="e7" to="gneE5"/>
    <trip id="231" depart="1347.33" from="e9" to="gneE10"/>
    <trip id="232" depart="1353.16" from="gneE11" to="e7"/>
    <trip id="233" depart="1358.99" from="e10" to="gneE11"/>
    <trip id="234" depart="1364.83" from="gneE9" to="gneE4"/>
    <trip id="235" depart="1370.66" from="e3" to="gneE10"/>
    <trip id="236" depart="1376.49" from="gneE7" to="gneE5"/>
    <trip id="237" depart="1382.32" from="e5" to="e11"/>
    <trip id="238" depart="1388.16" from="gneE5" to="gneE9"/>
    <trip id="239" depart="1393.99" from="e7" to="gneE2"/>
    <trip id="240" depart="1399.82" from="e8" to="e2"/>
    <trip id="241" depart="1405.65" from="gneE8" to="gneE10"/>
    <trip id="242" depart="1411.49" from="e12" to="e8"/>
    <trip id="243" depart="1417.32" from="gneE12" to="gneE1"/>
    <trip id="244" depart="1423.15" from="e7" to="e3"/>
    <trip id="245" depart="1428.98" from="e11" to="gneE6"/>
    <trip id="246" depart="1434.82" from="e8" to="e11"/>
    <trip id="247" depart="1440.65" from="e11" to="e10"/>
    <trip id="248" depart="1446.48" from="gneE11" to="e5"/>
    <trip id="249" depart="1452.31" from="gneE3" to="e5"/>
    <trip id="250" depart="1458.15" from="e9" to="e13"/>
    <trip id="251" depart="1463.98" from="e3" to="gneE2"/>
    <trip id="252" depart="1469.81" from="e5" to="gneE5"/>
    <trip id="253" depart="1475.65" from="gneE3" to="e12"/>
    <trip id="254" depart="1481.48" from="gneE3" to="e3"/>
    <trip id="255" depart="1487.31" from="gneE5" to="gneE6"/>
    <trip id="256" depart="1493.14" from="e2" to="gneE1"/>
    <trip id="257" depart="1498.98" from="e6" to="gneE7"/>
    <trip id="258" depart="1504.81" from="e2" to="gneE11"/>
    <trip id="259" depart="1510.64" from="gneE8" to="gneE7"/>
    <trip id="260" depart="1516.47" from="e13" to="e10"/>
    <trip id="261" depart="1522.31" from="gneE7" to="gneE7"/>
    <trip id="262" depart="1528.14" from="e8" to="e13"/>
    <trip id="263" depart="1533.97" from="e12" to="e7"/>
    <trip id="264" depart="1539.80" from="gneE9" to="gneE3"/>
    <trip id="265" depart="1545.64" from="e12" to="e13"/>
    <trip id="266" depart="1551.47" from="e10" to="gneE5"/>
    <trip id="267" depart="1557.30" from="gneE2" to="gneE9"/>
    <trip id="268" depart="1563.13" from="gneE12" to="gneE10"/>
    <trip id="269" depart="1568.97" from="gneE9" to="e12"/>
    <trip id="270" depart="1574.80" from="e9" to="gneE1"/>
    <trip id="271" depart="1580.63" from="gneE2" to="e7"/>
    <trip id="272" depart="1586.46" from="gneE6" to="gneE6"/>
    <trip id="273" depart="1592.30" from="e11" to="e12"/>
    <trip id="274" depart="1598.13" from="gneE2" to="gneE10"/>
    <trip id="275" depart="1603.96" from="gneE3" to="e10"/>
    <trip id="276" depart="1609.79" from="gneE1" to="e8"/>
    <trip id="277" depart="1615.63" from="gneE3" to="e6"/>
    <trip id="278" depart="1621.46" from="e12" to="e11"/>
    <trip id="279" depart="1627.29" from="e14" to="gneE9"/>
    <trip id="280" depart="1633.12" from="e9" to="e13"/>
    <trip id="281" depart="1638.96" from="gneE2" to="gneE2"/>
    <trip id="282" depart="1644.79" from="e9" to="e6"/>
    <trip id="283" depart="1650.62" from="e11" to="e8"/>
    <trip id="284" depart="1656.46" from="e3" to="e7"/>
    <trip id="285" depart="1662.29" from="gneE11" to="gneE3"/>
    <trip id="286" depart="1668.12" from="gneE1" to="gneE5"/>
    <trip id="287" depart="1673.95" from="e7" to="e14"/>
    <trip id="288" depart="1679.79" from="e13" to="e10"/>
    <trip id="289" depart="1685.62" from="gneE7" to="gneE5"/>
    <trip id="290" depart="1691.45" from="gneE3" to="gneE9"/>
    <trip id="291" depart="1697.28" from="gneE2" to="e11"/>
    <trip id="292" depart="1703.12" from="e10" to="e3"/>
    <trip id="293" depart="1708.95" from="gneE12" to="e7"/>
    <trip id="294" depart="1714.78" from="e9" to="e5"/>
    <trip id="295" depart="1720.61" from="gneE8" to="gneE8"/>
    <trip id="296" depart="1726.45" from="e10" to="e2"/>
    <trip id="297" depart="1732.28" from="gneE11" to="gneE2"/>
    <trip id="298" depart="1738.11" from="e13" to="e13"/>
    <trip id="299" depart="1743.94" from="e13" to="e10"/>
    <trip id="300" depart="1749.78" from="gneE1" to="gneE10"/>
    <trip id="301" depart="1755.61" from="e9" to="e12"/>
    <trip id="302" depart="1761.44" from="gneE7" to="e6"/>
    <trip id="303" depart="1767.27" from="e13" to="e2"/>
    <trip id="304" depart="1773.11" from="gneE7" to="gneE3"/>
    <trip id="305" depart="1778.94" from="gneE1" to="e13"/>
    <trip id="306" depart="1784.77" from="e9" to="gneE8"/>
    <trip id="307" depart="1790.60" from="e3" to="e8"/>
    <trip id="308" depart="1796.44" from="gneE7" to="gneE6"/>
    <trip id="309" depart="1802.27" from="e2" to="gneE4"/>
    <trip id="310" depart="1808.10" from="gneE11" to="gneE8"/>
    <trip id="311" depart="1813.94" from="e5" to="gneE3"/>
    <trip id="312" depart="1819.77" from="gneE4" to="e6"/>
    <trip id="313" depart="1825.60" from="gneE11" to="e12"/>
    <trip id="314" depart="1831.43" from="gneE3" to="e9"/>
    <trip id="315" depart="1837.27" from="gneE12" to="gneE9"/>
    <trip id="316" depart="1843.10" from="gneE12" to="gneE3"/>
    <trip id="317" depart="1848.93" from="gneE6" to="e13"/>
    <trip id="318" depart="1854.76" from="gneE4" to="gneE11"/>
    <trip id="319" depart="1860.60" from="e2" to="gneE9"/>
    <trip id="320" depart="1866.43" from="e10" to="gneE8"/>
    <trip id="321" depart="1872.26" from="e8" to="e7"/>
    <trip id="322" depart="1878.09" from="e13" to="e13"/>
    <trip id="323" depart="1883.93" from="gneE6" to="e2"/>
    <trip id="324" depart="1889.76" from="gneE9" to="gneE2"/>
    <trip id="325" depart="1895.59" from="e14" to="e12"/>
    <trip id="326" depart="1901.42" from="e9" to="e10"/>
    <trip id="327" depart="1907.26" from="gneE9" to="gneE4"/>
    <trip id="328" depart="1913.09" from="gneE3" to="e12"/>
    <trip id="329" depart="1918.92" from="e9" to="e6"/>
    <trip id="330" depart="1924.75" from="e12" to="e8"/>
    <trip id="331" depart="1930.59" from="gneE12" to="e14"/>
    <trip id="332" depart="1936.42" from="gneE9" to="gneE9"/>
    <trip id="333" depart="1942.25" from="gneE9" to="gneE3"/>
    <trip id="334" depart="1948.08" from="gneE11" to="gneE5"/>
    <trip id="335" depart="1953.92" from="e13" to="gneE3"/>
    <trip id="336" depart="1959.75" from="gneE12" to="gneE3"/>
    <trip id="337" depart="1965.58" from="gneE5" to="e6"/>
    <trip id="338" depart="1971.42" from="e7" to="gneE12"/>
    <trip id="339" depart="1977.25" from="gneE12" to="e11"/>
    <trip id="340" depart="1983.08" from="e10" to="e14"/>
    <trip id="341" depart="1988.91" from="gneE2" to="e9"/>
    <trip id="342" depart="1994.75" from="gneE8" to="gneE4"/>
    <trip id="343" depart="2000.58" from="e14" to="e13"/>
    <trip id="344" depart="2006.41" from="e11" to="gneE4"/>
    <trip id="345" depart="2012.24" from="e12" to="gneE10"/>
    <trip id="346" depart="2018.08" from="gneE5" to="e10"/>
    <trip id="347" depart="2023.91" from="gneE8" to="gneE12"/>
    <trip id="348" depart="2029.74" from="gneE4" to="gneE8"/>
    <trip id="349" depart="2035.57" from="e5" to="gneE7"/>
    <trip id="350" depart="2041.41" from="gneE1" to="e3"/>
    <trip id="351" depart="2047.24" from="gneE10" to="gneE11"/>
    <trip id="352" depart="2053.07" from="gneE8" to="e10"/>
    <trip id="353" depart="2058.90" from="gneE9" to="gneE7"/>
    <trip id="354" depart="2064.74" from="gneE3" to="e13"/>
    <trip id="355" depart="2070.57" from="e3" to="e12"/>
    <trip id="356" depart="2076.40" from="e12" to="e5"/>
    <trip id="357" depart="2082.23" from="gneE5" to="gneE12"/>
    <trip id="358" depart="2088.07" from="gneE6" to="gneE9"/>
    <trip id="359" depart="2093.90" from="e8" to="e3"/>
    <trip id="360" depart="2099.73" from="gneE8" to="gneE10"/>
    <trip id="361" depart="2105.56" from="e7" to="e6"/>
    <trip id="362" depart="2111.40" from="gneE7" to="e2"/>
    <trip id="363" depart="2117.23" from="e10" to="e8"/>
    <trip id="364" depart="2123.06" from="gneE7" to="e8"/>
    <trip id="365" depart="2128.90" from="e7" to="gneE2"/>
    <trip id="366" depart="2134.73" from="e9" to="e14"/>
    <trip id="367" depart="2140.56" from="e14" to="gneE5"/>
    <trip id="368" depart="2146.39" from="gneE12" to="gneE4"/>
    <trip id="369" depart="2152.23" from="e13" to="gneE12"/>
    <trip id="370" depart="2158.06" from="gneE11" to="gneE2"/>
    <trip id="371" depart="2163.89" from="gneE1" to="e6"/>
    <trip id="372" depart="2169.72" from="e8" to="gneE11"/>
    <trip id="373" depart="2175.56" from="e13" to="gneE5"/>
    <trip id="374" depart="2181.39" from="gneE9" to="gneE5"/>
    <trip id="375" depart="2187.22" from="gneE2" to="e7"/>
    <trip id="376" depart="2193.05" from="e7" to="e14"/>
    <trip id="377" depart="2198.89" from="e6" to="gneE11"/>
    <trip id="378" depart="2204.72" from="e7" to="e6"/>
    <trip id="379" depart="2210.55" from="e11" to="gneE12"/>
    <trip id="380" depart="2216.38" from="gneE4" to="gneE5"/>
    <trip id="381" depart="2222.22" from="gneE3" to="e9"/>
    <trip id="382" depart="2228.05" from="gneE7" to="e12"/>
    <trip id="383" depart="2233.88" from="e3" to="e13"/>
    <trip id="384" depart="2239.71" from="gneE1" to="gneE11"/>
    <trip id="385" depart="2245.55" from="e12" to="e7"/>
    <trip id="386" depart="2251.38" from="e13" to="gneE9"/>
    <trip id="387" depart="2257.21" from="e11" to="e13"/>
    <trip id="388" depart="2263.04" from="e11" to="gneE9"/>
    <trip id="389" depart="2268.88" from="gneE2" to="gneE9"/>
    <trip id="390" depart="2274.71" from="gneE2" to="e6"/>
    <trip id="391" depart="2280.54" from="e12" to="gneE1"/>
    <trip id="392" depart="2286.37" from="gneE4" to="e11"/>
    <trip id="393" depart="2292.21" from="e2" to="gneE4"/>
    <trip id="394" depart="2298.04" from="e5" to="gneE7"/>
    <trip id="395" depart="2303.87" from="gneE5" to="e6"/>
    <trip id="396" depart="2309.71" from="e9" to="e5"/>
    <trip id="397" depart="2315.54" from="e13" to="gneE7"/>
    <trip id="398" depart="2321.37" from="gneE7" to="gneE2"/>
    <trip id="399" depart="2327.20" from="gneE4" to="e9"/>
    <trip id="400" depart="2333.04" from="gneE6" to="gneE8"/>
    <trip id="401" depart="2338.87" from="gneE3" to="gneE12"/>
    <trip id="402" depart="2344.70" from="e7" to="e8"/>
    <trip id="403" depart="2350.53" from="gneE12" to="gneE5"/>
    <trip id="404" depart="2356.37" from="e5" to="e7"/>
    <trip id="405" depart="2362.20" from="e12" to="gneE8"/>
    <trip id="406" depart="2368.03" from="gneE5" to="e12"/>
    <trip id="407" depart="2373.86" from="e5" to="gneE5"/>
    <trip id="408" depart="2379.70" from="gneE9" to="e3"/>
    <trip id="409" depart="2385.53" from="gneE3" to="e10"/>
    <trip id="410" depart="2391.36" from="gneE12" to="gneE3"/>
    <trip id="411" depart="2397.19" from="e3" to="e12"/>
    <trip id="412" depart="2403.03" from="e3" to="e13"/>
    <trip id="413" depart="2408.86" from="e2" to="gneE10"/>
    <trip id="414" depart="2414.69" from="gneE4" to="gneE6"/>
    <trip id="415" depart="2420.52" from="gneE4" to="gneE8"/>
    <trip id="416" depart="2426.36" from="gneE5" to="gneE8"/>
    <trip id="417" depart="2432.19" from="gneE10" to="gneE4"/>
    <trip id="418" depart="2438.02" from="e9" to="gneE10"/>
    <trip id="419" depart="2443.85" from="gneE4" to="gneE6"/>
    <trip id="420" depart="2449.69" from="gneE12" to="e3"/>
    <trip id="421" depart="2455.52" from="e9" to="e12"/>
    <trip id="422" depart="2461.35" from="e8" to="e2"/>
    <trip id="423" depart="2467.19" from="e9" to="gneE12"/>
    <trip id="424" depart="2473.02" from="gneE1" to="gneE8"/>
    <trip id="425" depart="2478.85" from="gneE5" to="e8"/>
    <trip id="426" depart="2484.68" from="gneE1" to="e5"/>
    <trip id="427" depart="2490.52" from="gneE11" to="gneE11"/>
    <trip id="428" depart="2496.35" from="gneE5" to="e11"/>
    <trip id="429" depart="2502.18" from="e9" to="gneE7"/>
    <trip id="430" depart="2508.01" from="gneE5" to="gneE1"/>
    <trip id="431" depart="2513.85" from="e6" to="e8"/>
    <trip id="432" depart="2519.68" from="e5" to="e7"/>
    <trip id="433" depart="2525.51" from="gneE7" to="e3"/>
    <trip id="434" depart="2531.34" from="gneE9" to="e3"/>
    <trip id="435" depart="2537.18" from="gneE1" to="e12"/>
    <trip id="436" depart="2543.01" from="e6" to="gneE4"/>
    <trip id="437" depart="2548.84" from="e13" to="gneE4"/>
    <trip id="438" depart="2554.67" from="e6" to="gneE10"/>
    <trip id="439" depart="2560.51" from="e13" to="e9"/>
    <trip id="440" depart="2566.34" from="e5" to="e13"/>
    <trip id="441" depart="2572.17" from="gneE4" to="e3"/>
    <trip id="442" depart="2578.00" from="gneE2" to="gneE10"/>
    <trip id="443" depart="2583.84" from="gneE6" to="gneE10"/>
    <trip id="444" depart="2589.67" from="e8" to="e5"/>
    <trip id="445" depart="2595.50" from="e10" to="e12"/>
    <trip id="446" depart="2601.33" from="e2" to="gneE4"/>
    <trip id="447" depart="2607.17" from="e10" to="gneE3"/>
    <trip id="448" depart="2613.00" from="gneE10" to="e6"/>
</routes>
