<?xml version="1.0" encoding="UTF-8"?>
<!-- generated on 2020-12-22 03:34:14.639972 by $Id$ UNKNOWN
  options: 
-->
<routes xmlns:xsi="http://www.w3.org/2001/XMLSchema-instance" xsi:noNamespaceSchemaLocation="http://sumo.dlr.de/xsd/routes_file.xsd">
    <trip id="0" depart="0.00" from="gneE1" to="e10"/>
    <trip id="1" depart="5.61" from="e8" to="gneE12"/>
    <trip id="2" depart="11.22" from="gneE4" to="gneE2"/>
    <trip id="3" depart="16.84" from="e9" to="gneE10"/>
    <trip id="4" depart="22.45" from="gneE7" to="e10"/>
    <trip id="5" depart="28.06" from="gneE8" to="e9"/>
    <trip id="6" depart="33.67" from="gneE7" to="e3"/>
    <trip id="7" depart="39.29" from="e12" to="e12"/>
    <trip id="8" depart="44.90" from="gneE5" to="gneE4"/>
    <trip id="9" depart="50.51" from="e11" to="e6"/>
    <trip id="10" depart="56.12" from="gneE11" to="e3"/>
    <trip id="11" depart="61.74" from="gneE7" to="gneE6"/>
    <trip id="12" depart="67.35" from="gneE6" to="gneE2"/>
    <trip id="13" depart="72.96" from="gneE12" to="gneE12"/>
    <trip id="14" depart="78.57" from="e10" to="gneE3"/>
    <trip id="15" depart="84.19" from="gneE5" to="e8"/>
    <trip id="16" depart="89.80" from="e11" to="e10"/>
    <trip id="17" depart="95.41" from="gneE1" to="e7"/>
    <trip id="18" depart="101.02" from="gneE1" to="gneE11"/>
    <trip id="19" depart="106.64" from="gneE2" to="e13"/>
    <trip id="20" depart="112.25" from="gneE6" to="gneE9"/>
    <trip id="21" depart="117.86" from="gneE10" to="gneE7"/>
    <trip id="22" depart="123.47" from="e8" to="e8"/>
    <trip id="23" depart="129.09" from="e9" to="e3"/>
    <trip id="24" depart="134.70" from="e2" to="e3"/>
    <trip id="25" depart="140.31" from="gneE10" to="e5"/>
    <trip id="26" depart="145.92" from="gneE3" to="e10"/>
    <trip id="27" depart="151.54" from="gneE6" to="e13"/>
    <trip id="28" depart="157.15" from="gneE1" to="e9"/>
    <trip id="29" depart="162.76" from="e6" to="e7"/>
    <trip id="30" depart="168.37" from="gneE5" to="gneE1"/>
    <trip id="31" depart="173.99" from="gneE1" to="gneE5"/>
    <trip id="32" depart="179.60" from="gneE7" to="e14"/>
    <trip id="33" depart="185.21" from="gneE6" to="e3"/>
    <trip id="34" depart="190.82" from="e12" to="e5"/>
    <trip id="35" depart="196.44" from="e5" to="e5"/>
    <trip id="36" depart="202.05" from="e5" to="gneE10"/>
    <trip id="37" depart="207.66" from="gneE6" to="gneE1"/>
    <trip id="38" depart="213.27" from="gneE12" to="gneE8"/>
    <trip id="39" depart="218.89" from="gneE8" to="gneE7"/>
    <trip id="40" depart="224.50" from="e12" to="e10"/>
    <trip id="41" depart="230.11" from="gneE4" to="e3"/>
    <trip id="42" depart="235.72" from="gneE3" to="e12"/>
    <trip id="43" depart="241.34" from="e10" to="gneE1"/>
    <trip id="44" depart="246.95" from="e9" to="gneE1"/>
    <trip id="45" depart="252.56" from="gneE7" to="gneE2"/>
    <trip id="46" depart="258.17" from="e2" to="gneE6"/>
    <trip id="47" depart="263.79" from="gneE11" to="gneE9"/>
    <trip id="48" depart="269.40" from="e13" to="e2"/>
    <trip id="49" depart="275.01" from="e10" to="e8"/>
    <trip id="50" depart="280.62" from="e5" to="e2"/>
    <trip id="51" depart="286.24" from="e10" to="e7"/>
    <trip id="52" depart="291.85" from="gneE1" to="e14"/>
    <trip id="53" depart="297.46" from="gneE11" to="gneE11"/>
    <trip id="54" depart="303.07" from="gneE8" to="gneE6"/>
    <trip id="55" depart="308.69" from="gneE1" to="gneE1"/>
    <trip id="56" depart="314.30" from="e13" to="e14"/>
    <trip id="57" depart="319.91" from="gneE10" to="e9"/>
    <trip id="58" depart="325.52" from="e11" to="e3"/>
    <trip id="59" depart="331.14" from="e14" to="gneE10"/>
    <trip id="60" depart="336.75" from="gneE8" to="e10"/>
    <trip id="61" depart="342.36" from="gneE8" to="e7"/>
    <trip id="62" depart="347.97" from="e11" to="gneE12"/>
    <trip id="63" depart="353.59" from="gneE2" to="gneE6"/>
    <trip id="64" depart="359.20" from="e7" to="e6"/>
    <trip id="65" depart="364.81" from="gneE12" to="e7"/>
    <trip id="66" depart="370.42" from="e13" to="gneE4"/>
    <trip id="67" depart="376.04" from="e14" to="gneE5"/>
    <trip id="68" depart="381.65" from="e14" to="gneE5"/>
    <trip id="69" depart="387.26" from="e7" to="e10"/>
    <trip id="70" depart="392.87" from="gneE2" to="gneE7"/>
    <trip id="71" depart="398.49" from="e9" to="e3"/>
    <trip id="72" depart="404.10" from="e6" to="gneE5"/>
    <trip id="73" depart="409.71" from="e2" to="e10"/>
    <trip id="74" depart="415.32" from="e8" to="e3"/>
    <trip id="75" depart="420.94" from="e8" to="e3"/>
    <trip id="76" depart="426.55" from="gneE10" to="gneE10"/>
    <trip id="77" depart="432.16" from="e6" to="e11"/>
    <trip id="78" depart="437.77" from="gneE10" to="gneE12"/>
    <trip id="79" depart="443.39" from="gneE12" to="e5"/>
    <trip id="80" depart="449.00" from="gneE5" to="e2"/>
    <trip id="81" depart="454.61" from="e11" to="gneE8"/>
    <trip id="82" depart="460.22" from="gneE9" to="e13"/>
    <trip id="83" depart="465.84" from="e10" to="gneE9"/>
    <trip id="84" depart="471.45" from="e3" to="gneE1"/>
    <trip id="85" depart="477.06" from="gneE4" to="gneE4"/>
    <trip id="86" depart="482.67" from="gneE6" to="e11"/>
    <trip id="87" depart="488.29" from="e12" to="e10"/>
    <trip id="88" depart="493.90" from="e8" to="e14"/>
    <trip id="89" depart="499.51" from="e12" to="gneE5"/>
    <trip id="90" depart="505.12" from="e6" to="gneE1"/>
    <trip id="91" depart="510.73" from="e9" to="e14"/>
    <trip id="92" depart="516.35" from="gneE12" to="e7"/>
    <trip id="93" depart="521.96" from="e9" to="gneE10"/>
    <trip id="94" depart="527.57" from="gneE7" to="gneE1"/>
    <trip id="95" depart="533.18" from="gneE2" to="gneE2"/>
    <trip id="96" depart="538.80" from="e6" to="gneE2"/>
    <trip id="97" depart="544.41" from="e7" to="gneE9"/>
    <trip id="98" depart="550.02" from="e2" to="gneE7"/>
    <trip id="99" depart="555.63" from="gneE5" to="gneE11"/>
    <trip id="100" depart="561.25" from="e8" to="gneE4"/>
    <trip id="101" depart="566.86" from="e14" to="e9"/>
    <trip id="102" depart="572.47" from="gneE12" to="e3"/>
    <trip id="103" depart="578.08" from="gneE6" to="gneE6"/>
    <trip id="104" depart="583.70" from="gneE10" to="gneE12"/>
    <trip id="105" depart="589.31" from="e11" to="e14"/>
    <trip id="106" depart="594.92" from="e12" to="gneE12"/>
    <trip id="107" depart="600.53" from="e5" to="gneE11"/>
    <trip id="108" depart="606.15" from="e7" to="e7"/>
    <trip id="109" depart="611.76" from="e5" to="gneE8"/>
    <trip id="110" depart="617.37" from="gneE12" to="gneE9"/>
    <trip id="111" depart="622.98" from="e11" to="gneE3"/>
    <trip id="112" depart="628.60" from="gneE5" to="gneE11"/>
    <trip id="113" depart="634.21" from="e2" to="gneE12"/>
    <trip id="114" depart="639.82" from="gneE11" to="gneE5"/>
    <trip id="115" depart="645.43" from="e3" to="e11"/>
    <trip id="116" depart="651.05" from="gneE6" to="gneE7"/>
    <trip id="117" depart="656.66" from="gneE8" to="e3"/>
    <trip id="118" depart="662.27" from="e9" to="e2"/>
    <trip id="119" depart="667.88" from="gneE6" to="gneE4"/>
    <trip id="120" depart="673.50" from="gneE7" to="gneE7"/>
    <trip id="121" depart="679.11" from="gneE3" to="gneE9"/>
    <trip id="122" depart="684.72" from="e5" to="gneE9"/>
    <trip id="123" depart="690.33" from="e8" to="gneE2"/>
    <trip id="124" depart="695.95" from="e10" to="gneE3"/>
    <trip id="125" depart="701.56" from="e3" to="gneE9"/>
    <trip id="126" depart="707.17" from="gneE11" to="e2"/>
    <trip id="127" depart="712.78" from="e8" to="e2"/>
    <trip id="128" depart="718.40" from="e11" to="gneE9"/>
    <trip id="129" depart="724.01" from="gneE10" to="gneE8"/>
    <trip id="130" depart="729.62" from="e3" to="e7"/>
    <trip id="131" depart="735.23" from="gneE4" to="e8"/>
    <trip id="132" depart="740.85" from="gneE6" to="e14"/>
    <trip id="133" depart="746.46" from="gneE2" to="gneE8"/>
    <trip id="134" depart="752.07" from="gneE11" to="e13"/>
    <trip id="135" depart="757.68" from="gneE4" to="e12"/>
    <trip id="136" depart="763.30" from="e5" to="e3"/>
    <trip id="137" depart="768.91" from="e6" to="e2"/>
    <trip id="138" depart="774.52" from="gneE6" to="gneE11"/>
    <trip id="139" depart="780.13" from="gneE1" to="gneE3"/>
    <trip id="140" depart="785.75" from="e2" to="e8"/>
    <trip id="141" depart="791.36" from="e6" to="e6"/>
    <trip id="142" depart="796.97" from="gneE5" to="e2"/>
    <trip id="143" depart="802.58" from="gneE8" to="e7"/>
    <trip id="144" depart="808.20" from="gneE9" to="e3"/>
    <trip id="145" depart="813.81" from="gneE11" to="e8"/>
    <trip id="146" depart="819.42" from="e2" to="gneE2"/>
    <trip id="147" depart="825.03" from="gneE4" to="e14"/>
    <trip id="148" depart="830.65" from="gneE12" to="e12"/>
    <trip id="149" depart="836.26" from="e6" to="gneE1"/>
    <trip id="150" depart="841.87" from="e13" to="e11"/>
    <trip id="151" depart="847.48" from="gneE7" to="gneE11"/>
    <trip id="152" depart="853.10" from="e11" to="gneE12"/>
    <trip id="153" depart="858.71" from="gneE4" to="e14"/>
    <trip id="154" depart="864.32" from="e3" to="gneE11"/>
    <trip id="155" depart="869.93" from="e3" to="gneE12"/>
    <trip id="156" depart="875.55" from="gneE9" to="gneE8"/>
    <trip id="157" depart="881.16" from="e6" to="gneE5"/>
    <trip id="158" depart="886.77" from="e12" to="e8"/>
    <trip id="159" depart="892.38" from="gneE12" to="gneE6"/>
    <trip id="160" depart="898.00" from="e3" to="gneE10"/>
    <trip id="161" depart="903.61" from="e7" to="e11"/>
    <trip id="162" depart="909.22" from="gneE4" to="gneE11"/>
    <trip id="163" depart="914.83" from="gneE4" to="gneE3"/>
    <trip id="164" depart="920.45" from="gneE2" to="e5"/>
    <trip id="165" depart="926.06" from="gneE1" to="gneE12"/>
    <trip id="166" depart="931.67" from="gneE12" to="e13"/>
    <trip id="167" depart="937.28" from="e12" to="e12"/>
    <trip id="168" depart="942.90" from="gneE7" to="e7"/>
    <trip id="169" depart="948.51" from="gneE2" to="e13"/>
    <trip id="170" depart="954.12" from="e8" to="gneE8"/>
    <trip id="171" depart="959.73" from="gneE1" to="e11"/>
    <trip id="172" depart="965.35" from="e3" to="e13"/>
    <trip id="173" depart="970.96" from="gneE12" to="e9"/>
    <trip id="174" depart="976.57" from="e10" to="gneE4"/>
    <trip id="175" depart="982.18" from="gneE10" to="gneE4"/>
    <trip id="176" depart="987.80" from="e12" to="e7"/>
    <trip id="177" depart="993.41" from="gneE6" to="gneE8"/>
    <trip id="178" depart="999.02" from="e14" to="gneE11"/>
    <trip id="179" depart="1004.63" from="e5" to="gneE7"/>
    <trip id="180" depart="1010.24" from="e13" to="e2"/>
    <trip id="181" depart="1015.86" from="e11" to="e2"/>
    <trip id="182" depart="1021.47" from="e5" to="e10"/>
    <trip id="183" depart="1027.08" from="gneE2" to="gneE2"/>
    <trip id="184" depart="1032.69" from="gneE9" to="gneE4"/>
    <trip id="185" depart="1038.31" from="gneE4" to="gneE9"/>
    <trip id="186" depart="1043.92" from="gneE9" to="e11"/>
    <trip id="187" depart="1049.53" from="e14" to="gneE5"/>
    <trip id="188" depart="1055.14" from="gneE11" to="e3"/>
    <trip id="189" depart="1060.76" from="e3" to="gneE9"/>
    <trip id="190" depart="1066.37" from="gneE8" to="e7"/>
    <trip id="191" depart="1071.98" from="e6" to="e6"/>
    <trip id="192" depart="1077.59" from="gneE1" to="e12"/>
    <trip id="193" depart="1083.21" from="e8" to="gneE3"/>
    <trip id="194" depart="1088.82" from="gneE11" to="gneE11"/>
    <trip id="195" depart="1094.43" from="e10" to="gneE10"/>
    <trip id="196" depart="1100.04" from="e6" to="e5"/>
    <trip id="197" depart="1105.66" from="gneE4" to="gneE3"/>
    <trip id="198" depart="1111.27" from="gneE3" to="gneE6"/>
    <trip id="199" depart="1116.88" from="e11" to="gneE4"/>
    <trip id="200" depart="1122.49" from="gneE10" to="e9"/>
    <trip id="201" depart="1128.11" from="e6" to="e2"/>
    <trip id="202" depart="1133.72" from="e7" to="gneE2"/>
    <trip id="203" depart="1139.33" from="gneE9" to="gneE3"/>
    <trip id="204" depart="1144.94" from="e2" to="gneE3"/>
    <trip id="205" depart="1150.56" from="gneE5" to="e2"/>
    <trip id="206" depart="1156.17" from="gneE11" to="e6"/>
    <trip id="207" depart="1161.78" from="gneE6" to="e8"/>
    <trip id="208" depart="1167.39" from="gneE7" to="gneE9"/>
    <trip id="209" depart="1173.01" from="e2" to="gneE7"/>
    <trip id="210" depart="1178.62" from="gneE2" to="e14"/>
    <trip id="211" depart="1184.23" from="e2" to="gneE2"/>
    <trip id="212" depart="1189.84" from="gneE6" to="e12"/>
    <trip id="213" depart="1195.46" from="e8" to="e9"/>
    <trip id="214" depart="1201.07" from="gneE2" to="e10"/>
    <trip id="215" depart="1206.68" from="e9" to="gneE4"/>
    <trip id="216" depart="1212.29" from="e10" to="gneE5"/>
    <trip id="217" depart="1217.91" from="gneE1" to="e9"/>
    <trip id="218" depart="1223.52" from="gneE4" to="e3"/>
    <trip id="219" depart="1229.13" from="gneE5" to="e10"/>
    <trip id="220" depart="1234.74" from="gneE6" to="e11"/>
    <trip id="221" depart="1240.36" from="gneE1" to="gneE12"/>
    <trip id="222" depart="1245.97" from="e5" to="e8"/>
    <trip id="223" depart="1251.58" from="e8" to="gneE10"/>
    <trip id="224" depart="1257.19" from="gneE3" to="gneE3"/>
    <trip id="225" depart="1262.81" from="e7" to="e11"/>
    <trip id="226" depart="1268.42" from="gneE8" to="gneE11"/>
    <trip id="227" depart="1274.03" from="e12" to="e7"/>
    <trip id="228" depart="1279.64" from="gneE11" to="gneE12"/>
    <trip id="229" depart="1285.26" from="gneE5" to="e14"/>
    <trip id="230" depart="1290.87" from="gneE1" to="e7"/>
    <trip id="231" depart="1296.48" from="e5" to="gneE11"/>
    <trip id="232" depart="1302.09" from="gneE1" to="e12"/>
    <trip id="233" depart="1307.71" from="gneE5" to="gneE9"/>
    <trip id="234" depart="1313.32" from="gneE1" to="e11"/>
    <trip id="235" depart="1318.93" from="e5" to="e9"/>
    <trip id="236" depart="1324.54" from="gneE6" to="gneE5"/>
    <trip id="237" depart="1330.16" from="e6" to="e5"/>
    <trip id="238" depart="1335.77" from="gneE3" to="gneE3"/>
    <trip id="239" depart="1341.38" from="e13" to="e12"/>
    <trip id="240" depart="1346.99" from="e5" to="gneE9"/>
    <trip id="241" depart="1352.61" from="gneE5" to="gneE1"/>
    <trip id="242" depart="1358.22" from="gneE12" to="e5"/>
    <trip id="243" depart="1363.83" from="gneE4" to="e10"/>
    <trip id="244" depart="1369.44" from="gneE9" to="e10"/>
    <trip id="245" depart="1375.06" from="gneE9" to="e14"/>
    <trip id="246" depart="1380.67" from="gneE10" to="e10"/>
    <trip id="247" depart="1386.28" from="e6" to="e11"/>
    <trip id="248" depart="1391.89" from="e13" to="gneE6"/>
    <trip id="249" depart="1397.51" from="e3" to="e12"/>
    <trip id="250" depart="1403.12" from="gneE1" to="gneE2"/>
    <trip id="251" depart="1408.73" from="e14" to="gneE1"/>
    <trip id="252" depart="1414.34" from="e12" to="e5"/>
    <trip id="253" depart="1419.96" from="gneE8" to="e12"/>
    <trip id="254" depart="1425.57" from="e3" to="gneE2"/>
    <trip id="255" depart="1431.18" from="e9" to="gneE1"/>
    <trip id="256" depart="1436.79" from="gneE6" to="e12"/>
    <trip id="257" depart="1442.41" from="e7" to="e14"/>
    <trip id="258" depart="1448.02" from="gneE7" to="gneE4"/>
    <trip id="259" depart="1453.63" from="gneE2" to="gneE1"/>
    <trip id="260" depart="1459.24" from="e12" to="e8"/>
    <trip id="261" depart="1464.86" from="gneE11" to="gneE3"/>
    <trip id="262" depart="1470.47" from="e11" to="e13"/>
    <trip id="263" depart="1476.08" from="gneE6" to="e9"/>
    <trip id="264" depart="1481.69" from="gneE5" to="e10"/>
    <trip id="265" depart="1487.31" from="e7" to="e12"/>
    <trip id="266" depart="1492.92" from="e14" to="gneE6"/>
    <trip id="267" depart="1498.53" from="gneE5" to="e12"/>
    <trip id="268" depart="1504.14" from="e11" to="gneE2"/>
    <trip id="269" depart="1509.76" from="gneE6" to="gneE10"/>
    <trip id="270" depart="1515.37" from="e13" to="e8"/>
    <trip id="271" depart="1520.98" from="e10" to="gneE11"/>
    <trip id="272" depart="1526.59" from="gneE11" to="gneE10"/>
    <trip id="273" depart="1532.20" from="gneE5" to="gneE4"/>
    <trip id="274" depart="1537.82" from="e5" to="e10"/>
    <trip id="275" depart="1543.43" from="e7" to="e14"/>
    <trip id="276" depart="1549.04" from="gneE10" to="gneE6"/>
    <trip id="277" depart="1554.65" from="e12" to="gneE5"/>
    <trip id="278" depart="1560.27" from="e12" to="gneE2"/>
    <trip id="279" depart="1565.88" from="e7" to="e2"/>
    <trip id="280" depart="1571.49" from="gneE8" to="gneE4"/>
    <trip id="281" depart="1577.10" from="e14" to="gneE3"/>
    <trip id="282" depart="1582.72" from="e9" to="e9"/>
    <trip id="283" depart="1588.33" from="gneE10" to="e8"/>
    <trip id="284" depart="1593.94" from="gneE12" to="gneE11"/>
    <trip id="285" depart="1599.55" from="gneE9" to="gneE1"/>
    <trip id="286" depart="1605.17" from="gneE8" to="e6"/>
    <trip id="287" depart="1610.78" from="gneE8" to="e12"/>
    <trip id="288" depart="1616.39" from="gneE6" to="gneE7"/>
    <trip id="289" depart="1622.00" from="gneE6" to="e11"/>
    <trip id="290" depart="1627.62" from="gneE3" to="e3"/>
    <trip id="291" depart="1633.23" from="gneE6" to="gneE12"/>
    <trip id="292" depart="1638.84" from="gneE2" to="e9"/>
    <trip id="293" depart="1644.45" from="e6" to="gneE7"/>
    <trip id="294" depart="1650.07" from="e6" to="e10"/>
    <trip id="295" depart="1655.68" from="gneE5" to="gneE4"/>
    <trip id="296" depart="1661.29" from="gneE5" to="gneE7"/>
    <trip id="297" depart="1666.90" from="gneE11" to="gneE11"/>
    <trip id="298" depart="1672.52" from="gneE6" to="e8"/>
    <trip id="299" depart="1678.13" from="gneE5" to="gneE12"/>
    <trip id="300" depart="1683.74" from="e9" to="gneE12"/>
    <trip id="301" depart="1689.35" from="gneE11" to="gneE5"/>
    <trip id="302" depart="1694.97" from="gneE6" to="gneE10"/>
    <trip id="303" depart="1700.58" from="e3" to="gneE11"/>
    <trip id="304" depart="1706.19" from="e3" to="e13"/>
    <trip id="305" depart="1711.80" from="e14" to="gneE12"/>
    <trip id="306" depart="1717.42" from="e11" to="gneE5"/>
    <trip id="307" depart="1723.03" from="e6" to="gneE5"/>
    <trip id="308" depart="1728.64" from="e2" to="gneE9"/>
    <trip id="309" depart="1734.25" from="e13" to="gneE9"/>
    <trip id="310" depart="1739.87" from="gneE10" to="e2"/>
    <trip id="311" depart="1745.48" from="e7" to="gneE11"/>
    <trip id="312" depart="1751.09" from="gneE7" to="gneE5"/>
    <trip id="313" depart="1756.70" from="e11" to="e6"/>
    <trip id="314" depart="1762.32" from="gneE10" to="e13"/>
    <trip id="315" depart="1767.93" from="gneE3" to="gneE11"/>
    <trip id="316" depart="1773.54" from="e10" to="e7"/>
    <trip id="317" depart="1779.15" from="e12" to="gneE2"/>
    <trip id="318" depart="1784.77" from="e7" to="gneE5"/>
    <trip id="319" depart="1790.38" from="gneE3" to="gneE8"/>
    <trip id="320" depart="1795.99" from="e11" to="gneE11"/>
    <trip id="321" depart="1801.60" from="e10" to="e3"/>
    <trip id="322" depart="1807.22" from="gneE1" to="e5"/>
    <trip id="323" depart="1812.83" from="gneE12" to="e11"/>
    <trip id="324" depart="1818.44" from="e13" to="e5"/>
    <trip id="325" depart="1824.05" from="e14" to="e11"/>
    <trip id="326" depart="1829.67" from="e5" to="e2"/>
    <trip id="327" depart="1835.28" from="gneE3" to="gneE11"/>
    <trip id="328" depart="1840.89" from="gneE5" to="e7"/>
    <trip id="329" depart="1846.50" from="gneE5" to="gneE11"/>
    <trip id="330" depart="1852.12" from="e11" to="e14"/>
    <trip id="331" depart="1857.73" from="e5" to="gneE12"/>
    <trip id="332" depart="1863.34" from="gneE12" to="e5"/>
    <trip id="333" depart="1868.95" from="gneE7" to="e11"/>
    <trip id="334" depart="1874.57" from="e6" to="gneE7"/>
    <trip id="335" depart="1880.18" from="gneE9" to="gneE9"/>
    <trip id="336" depart="1885.79" from="gneE11" to="e8"/>
    <trip id="337" depart="1891.40" from="gneE2" to="e9"/>
    <trip id="338" depart="1897.02" from="e11" to="e12"/>
    <trip id="339" depart="1902.63" from="e14" to="e7"/>
    <trip id="340" depart="1908.24" from="e6" to="e13"/>
    <trip id="341" depart="1913.85" from="e8" to="gneE5"/>
    <trip id="342" depart="1919.47" from="e13" to="e5"/>
    <trip id="343" depart="1925.08" from="gneE7" to="gneE4"/>
    <trip id="344" depart="1930.69" from="e8" to="gneE3"/>
    <trip id="345" depart="1936.30" from="e11" to="e2"/>
    <trip id="346" depart="1941.92" from="gneE5" to="gneE7"/>
    <trip id="347" depart="1947.53" from="e7" to="gneE9"/>
    <trip id="348" depart="1953.14" from="e12" to="e13"/>
    <trip id="349" depart="1958.75" from="e11" to="gneE5"/>
    <trip id="350" depart="1964.37" from="gneE5" to="e7"/>
    <trip id="351" depart="1969.98" from="gneE12" to="e3"/>
    <trip id="352" depart="1975.59" from="e8" to="gneE11"/>
    <trip id="353" depart="1981.20" from="gneE12" to="e13"/>
    <trip id="354" depart="1986.82" from="e10" to="gneE11"/>
    <trip id="355" depart="1992.43" from="gneE3" to="gneE12"/>
    <trip id="356" depart="1998.04" from="e2" to="e5"/>
    <trip id="357" depart="2003.65" from="gneE5" to="gneE6"/>
    <trip id="358" depart="2009.27" from="gneE9" to="gneE2"/>
    <trip id="359" depart="2014.88" from="gneE2" to="e5"/>
    <trip id="360" depart="2020.49" from="e10" to="e13"/>
    <trip id="361" depart="2026.10" from="e10" to="e3"/>
    <trip id="362" depart="2031.71" from="gneE4" to="gneE8"/>
    <trip id="363" depart="2037.33" from="gneE12" to="gneE1"/>
    <trip id="364" depart="2042.94" from="e10" to="e13"/>
    <trip id="365" depart="2048.55" from="e13" to="gneE12"/>
    <trip id="366" depart="2054.16" from="e14" to="e7"/>
    <trip id="367" depart="2059.78" from="gneE2" to="gneE9"/>
    <trip id="368" depart="2065.39" from="gneE9" to="gneE2"/>
    <trip id="369" depart="2071.00" from="e12" to="gneE11"/>
    <trip id="370" depart="2076.61" from="e5" to="gneE12"/>
    <trip id="371" depart="2082.23" from="gneE7" to="e11"/>
    <trip id="372" depart="2087.84" from="e5" to="gneE11"/>
    <trip id="373" depart="2093.45" from="gneE4" to="gneE1"/>
    <trip id="374" depart="2099.06" from="e5" to="gneE11"/>
    <trip id="375" depart="2104.68" from="e9" to="gneE6"/>
    <trip id="376" depart="2110.29" from="e5" to="gneE1"/>
    <trip id="377" depart="2115.90" from="gneE2" to="gneE3"/>
    <trip id="378" depart="2121.51" from="e3" to="gneE4"/>
    <trip id="379" depart="2127.13" from="e10" to="e3"/>
    <trip id="380" depart="2132.74" from="gneE12" to="e14"/>
    <trip id="381" depart="2138.35" from="gneE12" to="gneE1"/>
    <trip id="382" depart="2143.96" from="gneE5" to="e2"/>
    <trip id="383" depart="2149.58" from="e14" to="e6"/>
    <trip id="384" depart="2155.19" from="e5" to="e2"/>
    <trip id="385" depart="2160.80" from="gneE6" to="e6"/>
    <trip id="386" depart="2166.41" from="gneE4" to="gneE9"/>
    <trip id="387" depart="2172.03" from="gneE2" to="gneE3"/>
    <trip id="388" depart="2177.64" from="gneE5" to="gneE6"/>
    <trip id="389" depart="2183.25" from="gneE2" to="e2"/>
    <trip id="390" depart="2188.86" from="gneE12" to="e7"/>
    <trip id="391" depart="2194.48" from="gneE12" to="e2"/>
    <trip id="392" depart="2200.09" from="gneE7" to="gneE4"/>
    <trip id="393" depart="2205.70" from="gneE9" to="gneE12"/>
    <trip id="394" depart="2211.31" from="e11" to="e13"/>
    <trip id="395" depart="2216.93" from="e13" to="gneE10"/>
    <trip id="396" depart="2222.54" from="e11" to="gneE10"/>
    <trip id="397" depart="2228.15" from="e5" to="e6"/>
    <trip id="398" depart="2233.76" from="e5" to="e11"/>
    <trip id="399" depart="2239.38" from="e5" to="gneE2"/>
    <trip id="400" depart="2244.99" from="gneE7" to="e6"/>
    <trip id="401" depart="2250.60" from="e13" to="e6"/>
    <trip id="402" depart="2256.21" from="e14" to="e9"/>
    <trip id="403" depart="2261.83" from="e6" to="e3"/>
    <trip id="404" depart="2267.44" from="e5" to="e12"/>
    <trip id="405" depart="2273.05" from="gneE1" to="gneE1"/>
    <trip id="406" depart="2278.66" from="e14" to="e10"/>
    <trip id="407" depart="2284.28" from="gneE5" to="e12"/>
    <trip id="408" depart="2289.89" from="e6" to="gneE6"/>
    <trip id="409" depart="2295.50" from="e9" to="gneE11"/>
    <trip id="410" depart="2301.11" from="e11" to="gneE9"/>
    <trip id="411" depart="2306.73" from="gneE1" to="gneE3"/>
    <trip id="412" depart="2312.34" from="gneE5" to="e12"/>
    <trip id="413" depart="2317.95" from="gneE8" to="e12"/>
    <trip id="414" depart="2323.56" from="e5" to="gneE11"/>
    <trip id="415" depart="2329.18" from="gneE12" to="gneE4"/>
    <trip id="416" depart="2334.79" from="gneE5" to="gneE1"/>
    <trip id="417" depart="2340.40" from="e5" to="e13"/>
    <trip id="418" depart="2346.01" from="e13" to="gneE11"/>
    <trip id="419" depart="2351.63" from="gneE11" to="gneE2"/>
    <trip id="420" depart="2357.24" from="e9" to="gneE3"/>
    <trip id="421" depart="2362.85" from="gneE9" to="gneE11"/>
    <trip id="422" depart="2368.46" from="e2" to="gneE1"/>
    <trip id="423" depart="2374.08" from="gneE9" to="gneE9"/>
    <trip id="424" depart="2379.69" from="e11" to="e5"/>
    <trip id="425" depart="2385.30" from="gneE1" to="e13"/>
    <trip id="426" depart="2390.91" from="gneE11" to="e8"/>
    <trip id="427" depart="2396.53" from="e10" to="e6"/>
    <trip id="428" depart="2402.14" from="gneE5" to="gneE10"/>
    <trip id="429" depart="2407.75" from="e7" to="e11"/>
    <trip id="430" depart="2413.36" from="gneE4" to="gneE1"/>
    <trip id="431" depart="2418.98" from="e10" to="e3"/>
    <trip id="432" depart="2424.59" from="e3" to="e14"/>
    <trip id="433" depart="2430.20" from="gneE5" to="gneE6"/>
    <trip id="434" depart="2435.81" from="gneE10" to="e6"/>
    <trip id="435" depart="2441.43" from="e8" to="e14"/>
    <trip id="436" depart="2447.04" from="e12" to="gneE9"/>
    <trip id="437" depart="2452.65" from="gneE9" to="gneE2"/>
    <trip id="438" depart="2458.26" from="gneE10" to="gneE3"/>
    <trip id="439" depart="2463.88" from="gneE8" to="e2"/>
    <trip id="440" depart="2469.49" from="e3" to="e6"/>
    <trip id="441" depart="2475.10" from="gneE6" to="e5"/>
    <trip id="442" depart="2480.71" from="e2" to="e13"/>
    <trip id="443" depart="2486.33" from="e7" to="e12"/>
    <trip id="444" depart="2491.94" from="e10" to="gneE1"/>
    <trip id="445" depart="2497.55" from="gneE1" to="gneE1"/>
    <trip id="446" depart="2503.16" from="e3" to="gneE3"/>
    <trip id="447" depart="2508.78" from="e7" to="e3"/>
    <trip id="448" depart="2514.39" from="gneE9" to="gneE7"/>
</routes>
