<?xml version="1.0" encoding="UTF-8"?>

<!-- generated on Thu Nov 12 16:45:39 2020 by Eclipse SUMO Version 1.6.0
<configuration xmlns:xsi="http://www.w3.org/2001/XMLSchema-instance" xsi:noNamespaceSchemaLocation="http://sumo.dlr.de/xsd/sumoConfiguration.xsd">

    <input>
        <net-file value="configs/two_inter/two_inter.net.xml"/>
        <route-files value="configs/two_inter/traffic.rou.xml"/>
        <additional-files value="configs/two_inter/traffic.det.xml"/>
    </input>

    <output>
        <tripinfo-output value="configs/two_inter/tripinfo.xml"/>
    </output>

    <traci_server>
        <remote-port value="54552"/>
    </traci_server>

</configuration>
