<?xml version="1.0" encoding="UTF-8"?>
<!-- generated on 2020-12-20 21:32:11.513889 by $Id$ UNKNOWN
  options: 
-->
<routes xmlns:xsi="http://www.w3.org/2001/XMLSchema-instance" xsi:noNamespaceSchemaLocation="http://sumo.dlr.de/xsd/routes_file.xsd">
    <trip id="0" depart="0.00" from="e9" to="e14"/>
    <trip id="1" depart="4.10" from="e10" to="gneE12"/>
    <trip id="2" depart="8.20" from="e11" to="gneE1"/>
    <trip id="3" depart="12.29" from="gneE3" to="e13"/>
    <trip id="4" depart="16.39" from="gneE2" to="e3"/>
    <trip id="5" depart="20.49" from="e12" to="e5"/>
    <trip id="6" depart="24.59" from="e5" to="e12"/>
    <trip id="7" depart="28.68" from="e9" to="e11"/>
    <trip id="8" depart="32.78" from="e10" to="gneE7"/>
    <trip id="9" depart="36.88" from="e13" to="gneE12"/>
    <trip id="10" depart="40.98" from="gneE2" to="e8"/>
    <trip id="11" depart="45.08" from="e14" to="e7"/>
    <trip id="12" depart="49.17" from="gneE4" to="e2"/>
    <trip id="13" depart="53.27" from="gneE11" to="gneE4"/>
    <trip id="14" depart="57.37" from="e2" to="e5"/>
    <trip id="15" depart="61.47" from="gneE9" to="gneE9"/>
    <trip id="16" depart="65.56" from="gneE5" to="e8"/>
    <trip id="17" depart="69.66" from="e2" to="gneE7"/>
    <trip id="18" depart="73.76" from="e10" to="gneE11"/>
    <trip id="19" depart="77.86" from="e10" to="e6"/>
    <trip id="20" depart="81.96" from="e11" to="e7"/>
    <trip id="21" depart="86.05" from="gneE3" to="gneE7"/>
    <trip id="22" depart="90.15" from="e9" to="e11"/>
    <trip id="23" depart="94.25" from="e12" to="gneE9"/>
    <trip id="24" depart="98.35" from="e11" to="gneE7"/>
    <trip id="25" depart="102.44" from="gneE9" to="e2"/>
    <trip id="26" depart="106.54" from="gneE7" to="e5"/>
    <trip id="27" depart="110.64" from="e9" to="gneE5"/>
    <trip id="28" depart="114.74" from="gneE8" to="e14"/>
    <trip id="29" depart="118.84" from="e9" to="gneE4"/>
    <trip id="30" depart="122.93" from="gneE1" to="gneE7"/>
    <trip id="31" depart="127.03" from="gneE2" to="gneE12"/>
    <trip id="32" depart="131.13" from="gneE8" to="gneE8"/>
    <trip id="33" depart="135.23" from="gneE8" to="e6"/>
    <trip id="34" depart="139.32" from="e8" to="gneE10"/>
    <trip id="35" depart="143.42" from="e11" to="gneE10"/>
    <trip id="36" depart="147.52" from="gneE11" to="gneE5"/>
    <trip id="37" depart="151.62" from="gneE6" to="e11"/>
    <trip id="38" depart="155.72" from="gneE9" to="gneE5"/>
    <trip id="39" depart="159.81" from="gneE1" to="gneE8"/>
    <trip id="40" depart="163.91" from="gneE5" to="gneE9"/>
    <trip id="41" depart="168.01" from="e6" to="gneE8"/>
    <trip id="42" depart="172.11" from="e5" to="e10"/>
    <trip id="43" depart="176.20" from="gneE1" to="gneE6"/>
    <trip id="44" depart="180.30" from="e13" to="e3"/>
    <trip id="45" depart="184.40" from="gneE3" to="e13"/>
    <trip id="46" depart="188.50" from="gneE10" to="gneE9"/>
    <trip id="47" depart="192.60" from="gneE10" to="gneE3"/>
    <trip id="48" depart="196.69" from="gneE9" to="e12"/>
    <trip id="49" depart="200.79" from="e9" to="e2"/>
    <trip id="50" depart="204.89" from="gneE6" to="gneE3"/>
    <trip id="51" depart="208.99" from="e10" to="e2"/>
    <trip id="52" depart="213.08" from="e13" to="gneE11"/>
    <trip id="53" depart="217.18" from="e12" to="gneE2"/>
    <trip id="54" depart="221.28" from="e13" to="e5"/>
    <trip id="55" depart="225.38" from="e11" to="e6"/>
    <trip id="56" depart="229.48" from="gneE1" to="e5"/>
    <trip id="57" depart="233.57" from="e5" to="gneE10"/>
    <trip id="58" depart="237.67" from="gneE1" to="gneE5"/>
    <trip id="59" depart="241.77" from="e7" to="gneE10"/>
    <trip id="60" depart="245.87" from="e12" to="e6"/>
    <trip id="61" depart="249.96" from="gneE6" to="e8"/>
    <trip id="62" depart="254.06" from="gneE10" to="e6"/>
    <trip id="63" depart="258.16" from="gneE11" to="gneE6"/>
    <trip id="64" depart="262.26" from="gneE9" to="gneE12"/>
    <trip id="65" depart="266.36" from="e2" to="e3"/>
    <trip id="66" depart="270.45" from="gneE5" to="gneE6"/>
    <trip id="67" depart="274.55" from="gneE8" to="gneE4"/>
    <trip id="68" depart="278.65" from="gneE7" to="gneE1"/>
    <trip id="69" depart="282.75" from="e8" to="e11"/>
    <trip id="70" depart="286.84" from="gneE3" to="gneE2"/>
    <trip id="71" depart="290.94" from="e10" to="gneE5"/>
    <trip id="72" depart="295.04" from="gneE9" to="gneE10"/>
    <trip id="73" depart="299.14" from="e11" to="e2"/>
    <trip id="74" depart="303.24" from="gneE8" to="gneE9"/>
    <trip id="75" depart="307.33" from="gneE6" to="e12"/>
    <trip id="76" depart="311.43" from="e3" to="e12"/>
    <trip id="77" depart="315.53" from="e13" to="gneE7"/>
    <trip id="78" depart="319.63" from="gneE2" to="gneE2"/>
    <trip id="79" depart="323.72" from="e7" to="e9"/>
    <trip id="80" depart="327.82" from="e14" to="gneE4"/>
    <trip id="81" depart="331.92" from="e3" to="e13"/>
    <trip id="82" depart="336.02" from="gneE7" to="gneE10"/>
    <trip id="83" depart="340.12" from="gneE2" to="gneE7"/>
    <trip id="84" depart="344.21" from="e7" to="gneE11"/>
    <trip id="85" depart="348.31" from="gneE4" to="gneE5"/>
    <trip id="86" depart="352.41" from="gneE7" to="gneE2"/>
    <trip id="87" depart="356.51" from="e2" to="e5"/>
    <trip id="88" depart="360.60" from="e14" to="e8"/>
    <trip id="89" depart="364.70" from="e10" to="e5"/>
    <trip id="90" depart="368.80" from="e8" to="gneE4"/>
    <trip id="91" depart="372.90" from="e3" to="e2"/>
    <trip id="92" depart="377.00" from="e12" to="gneE6"/>
    <trip id="93" depart="381.09" from="e10" to="gneE8"/>
    <trip id="94" depart="385.19" from="e5" to="gneE3"/>
    <trip id="95" depart="389.29" from="gneE9" to="e10"/>
    <trip id="96" depart="393.39" from="e9" to="gneE2"/>
    <trip id="97" depart="397.48" from="e13" to="gneE10"/>
    <trip id="98" depart="401.58" from="gneE2" to="gneE9"/>
    <trip id="99" depart="405.68" from="gneE6" to="e2"/>
    <trip id="100" depart="409.78" from="gneE7" to="e11"/>
    <trip id="101" depart="413.88" from="e7" to="e14"/>
    <trip id="102" depart="417.97" from="e6" to="gneE2"/>
    <trip id="103" depart="422.07" from="e8" to="e2"/>
    <trip id="104" depart="426.17" from="e2" to="gneE12"/>
    <trip id="105" depart="430.27" from="e3" to="e9"/>
    <trip id="106" depart="434.36" from="e9" to="e14"/>
    <trip id="107" depart="438.46" from="gneE6" to="e3"/>
    <trip id="108" depart="442.56" from="e13" to="e7"/>
    <trip id="109" depart="446.66" from="gneE11" to="e13"/>
    <trip id="110" depart="450.76" from="e7" to="gneE3"/>
    <trip id="111" depart="454.85" from="e3" to="e9"/>
    <trip id="112" depart="458.95" from="e10" to="e10"/>
    <trip id="113" depart="463.05" from="gneE2" to="gneE7"/>
    <trip id="114" depart="467.15" from="gneE11" to="gneE4"/>
    <trip id="115" depart="471.24" from="gneE6" to="gneE12"/>
    <trip id="116" depart="475.34" from="gneE5" to="gneE6"/>
    <trip id="117" depart="479.44" from="gneE4" to="e6"/>
    <trip id="118" depart="483.54" from="gneE6" to="gneE7"/>
    <trip id="119" depart="487.64" from="e12" to="gneE12"/>
    <trip id="120" depart="491.73" from="e10" to="e6"/>
    <trip id="121" depart="495.83" from="gneE12" to="gneE4"/>
    <trip id="122" depart="499.93" from="gneE9" to="e11"/>
    <trip id="123" depart="504.03" from="gneE8" to="e6"/>
    <trip id="124" depart="508.12" from="e13" to="e11"/>
    <trip id="125" depart="512.22" from="e6" to="e7"/>
    <trip id="126" depart="516.32" from="e11" to="e7"/>
    <trip id="127" depart="520.42" from="e2" to="gneE8"/>
    <trip id="128" depart="524.52" from="e6" to="gneE1"/>
    <trip id="129" depart="528.61" from="e10" to="gneE6"/>
    <trip id="130" depart="532.71" from="e2" to="gneE11"/>
    <trip id="131" depart="536.81" from="gneE11" to="e8"/>
    <trip id="132" depart="540.91" from="e3" to="gneE1"/>
    <trip id="133" depart="545.00" from="e11" to="gneE2"/>
    <trip id="134" depart="549.10" from="e6" to="e8"/>
    <trip id="135" depart="553.20" from="e8" to="gneE12"/>
    <trip id="136" depart="557.30" from="e3" to="gneE9"/>
    <trip id="137" depart="561.40" from="e10" to="gneE10"/>
    <trip id="138" depart="565.49" from="e13" to="e7"/>
    <trip id="139" depart="569.59" from="gneE8" to="gneE10"/>
    <trip id="140" depart="573.69" from="gneE10" to="gneE8"/>
    <trip id="141" depart="577.79" from="e3" to="gneE6"/>
    <trip id="142" depart="581.88" from="e9" to="gneE9"/>
    <trip id="143" depart="585.98" from="e11" to="gneE5"/>
    <trip id="144" depart="590.08" from="e3" to="e5"/>
    <trip id="145" depart="594.18" from="e11" to="gneE1"/>
    <trip id="146" depart="598.28" from="gneE10" to="e11"/>
    <trip id="147" depart="602.37" from="e5" to="gneE8"/>
    <trip id="148" depart="606.47" from="e6" to="e2"/>
    <trip id="149" depart="610.57" from="gneE3" to="gneE5"/>
    <trip id="150" depart="614.67" from="e7" to="gneE2"/>
    <trip id="151" depart="618.76" from="e13" to="gneE7"/>
    <trip id="152" depart="622.86" from="e13" to="gneE5"/>
    <trip id="153" depart="626.96" from="e2" to="gneE10"/>
    <trip id="154" depart="631.06" from="e2" to="e13"/>
    <trip id="155" depart="635.16" from="gneE7" to="gneE3"/>
    <trip id="156" depart="639.25" from="gneE3" to="gneE1"/>
    <trip id="157" depart="643.35" from="e9" to="e8"/>
    <trip id="158" depart="647.45" from="gneE3" to="gneE2"/>
    <trip id="159" depart="651.55" from="e13" to="e10"/>
    <trip id="160" depart="655.64" from="e11" to="gneE10"/>
    <trip id="161" depart="659.74" from="e10" to="e2"/>
    <trip id="162" depart="663.84" from="e9" to="e3"/>
    <trip id="163" depart="667.94" from="e5" to="e3"/>
    <trip id="164" depart="672.04" from="e5" to="gneE12"/>
    <trip id="165" depart="676.13" from="e11" to="e12"/>
    <trip id="166" depart="680.23" from="e6" to="e9"/>
    <trip id="167" depart="684.33" from="gneE6" to="gneE7"/>
    <trip id="168" depart="688.43" from="e8" to="e13"/>
    <trip id="169" depart="692.52" from="gneE4" to="e2"/>
    <trip id="170" depart="696.62" from="e5" to="gneE4"/>
    <trip id="171" depart="700.72" from="e10" to="e10"/>
    <trip id="172" depart="704.82" from="e13" to="e7"/>
    <trip id="173" depart="708.92" from="e6" to="e11"/>
    <trip id="174" depart="713.01" from="gneE7" to="e2"/>
    <trip id="175" depart="717.11" from="gneE12" to="e5"/>
    <trip id="176" depart="721.21" from="e10" to="gneE6"/>
    <trip id="177" depart="725.31" from="e5" to="gneE6"/>
    <trip id="178" depart="729.40" from="gneE6" to="e6"/>
    <trip id="179" depart="733.50" from="gneE3" to="gneE7"/>
    <trip id="180" depart="737.60" from="gneE11" to="gneE4"/>
    <trip id="181" depart="741.70" from="e11" to="gneE2"/>
    <trip id="182" depart="745.80" from="gneE12" to="e2"/>
    <trip id="183" depart="749.89" from="e5" to="gneE4"/>
    <trip id="184" depart="753.99" from="e10" to="e8"/>
    <trip id="185" depart="758.09" from="e7" to="e5"/>
    <trip id="186" depart="762.19" from="gneE12" to="gneE9"/>
    <trip id="187" depart="766.28" from="e8" to="e5"/>
    <trip id="188" depart="770.38" from="gneE4" to="e8"/>
    <trip id="189" depart="774.48" from="gneE11" to="gneE2"/>
    <trip id="190" depart="778.58" from="e11" to="e8"/>
    <trip id="191" depart="782.68" from="e9" to="e9"/>
    <trip id="192" depart="786.77" from="e3" to="gneE2"/>
    <trip id="193" depart="790.87" from="e14" to="gneE2"/>
    <trip id="194" depart="794.97" from="gneE4" to="e13"/>
    <trip id="195" depart="799.07" from="e5" to="e8"/>
    <trip id="196" depart="803.16" from="e7" to="gneE3"/>
    <trip id="197" depart="807.26" from="gneE8" to="gneE2"/>
    <trip id="198" depart="811.36" from="gneE1" to="e7"/>
    <trip id="199" depart="815.46" from="e5" to="e11"/>
    <trip id="200" depart="819.56" from="gneE11" to="gneE1"/>
    <trip id="201" depart="823.65" from="gneE2" to="e10"/>
    <trip id="202" depart="827.75" from="e13" to="gneE10"/>
    <trip id="203" depart="831.85" from="e11" to="gneE4"/>
    <trip id="204" depart="835.95" from="gneE2" to="gneE11"/>
    <trip id="205" depart="840.04" from="e2" to="e5"/>
    <trip id="206" depart="844.14" from="e7" to="e11"/>
    <trip id="207" depart="848.24" from="e2" to="e9"/>
    <trip id="208" depart="852.34" from="e10" to="e11"/>
    <trip id="209" depart="856.44" from="e10" to="e8"/>
    <trip id="210" depart="860.53" from="e13" to="gneE9"/>
    <trip id="211" depart="864.63" from="e6" to="gneE4"/>
    <trip id="212" depart="868.73" from="e11" to="gneE6"/>
    <trip id="213" depart="872.83" from="gneE4" to="gneE1"/>
    <trip id="214" depart="876.92" from="gneE3" to="gneE7"/>
    <trip id="215" depart="881.02" from="e8" to="gneE1"/>
    <trip id="216" depart="885.12" from="gneE10" to="e7"/>
    <trip id="217" depart="889.22" from="e13" to="gneE5"/>
    <trip id="218" depart="893.32" from="gneE2" to="e7"/>
    <trip id="219" depart="897.41" from="e7" to="e13"/>
    <trip id="220" depart="901.51" from="e5" to="gneE3"/>
    <trip id="221" depart="905.61" from="e13" to="gneE5"/>
    <trip id="222" depart="909.71" from="gneE7" to="gneE7"/>
    <trip id="223" depart="913.80" from="e14" to="gneE9"/>
    <trip id="224" depart="917.90" from="gneE9" to="e6"/>
    <trip id="225" depart="922.00" from="gneE11" to="e3"/>
    <trip id="226" depart="926.10" from="gneE6" to="gneE6"/>
    <trip id="227" depart="930.20" from="gneE9" to="gneE5"/>
    <trip id="228" depart="934.29" from="gneE3" to="gneE9"/>
    <trip id="229" depart="938.39" from="e7" to="e3"/>
    <trip id="230" depart="942.49" from="e7" to="e13"/>
    <trip id="231" depart="946.59" from="gneE10" to="e7"/>
    <trip id="232" depart="950.68" from="gneE7" to="e13"/>
    <trip id="233" depart="954.78" from="e5" to="gneE9"/>
    <trip id="234" depart="958.88" from="e5" to="gneE12"/>
    <trip id="235" depart="962.98" from="e2" to="gneE12"/>
    <trip id="236" depart="967.08" from="gneE4" to="gneE1"/>
    <trip id="237" depart="971.17" from="e14" to="e6"/>
    <trip id="238" depart="975.27" from="gneE4" to="e6"/>
    <trip id="239" depart="979.37" from="gneE5" to="e14"/>
    <trip id="240" depart="983.47" from="e13" to="gneE11"/>
    <trip id="241" depart="987.56" from="e5" to="gneE11"/>
    <trip id="242" depart="991.66" from="gneE12" to="gneE1"/>
    <trip id="243" depart="995.76" from="gneE3" to="e6"/>
    <trip id="244" depart="999.86" from="e6" to="gneE11"/>
    <trip id="245" depart="1003.96" from="gneE12" to="gneE12"/>
    <trip id="246" depart="1008.05" from="e12" to="e13"/>
    <trip id="247" depart="1012.15" from="gneE4" to="e9"/>
    <trip id="248" depart="1016.25" from="e9" to="gneE7"/>
    <trip id="249" depart="1020.35" from="e8" to="gneE7"/>
    <trip id="250" depart="1024.44" from="gneE11" to="gneE5"/>
    <trip id="251" depart="1028.54" from="gneE3" to="gneE11"/>
    <trip id="252" depart="1032.64" from="e14" to="e12"/>
    <trip id="253" depart="1036.74" from="e3" to="e9"/>
    <trip id="254" depart="1040.84" from="gneE12" to="e5"/>
    <trip id="255" depart="1044.93" from="gneE9" to="e3"/>
    <trip id="256" depart="1049.03" from="gneE2" to="gneE3"/>
    <trip id="257" depart="1053.13" from="e9" to="e3"/>
    <trip id="258" depart="1057.23" from="gneE1" to="gneE1"/>
    <trip id="259" depart="1061.32" from="gneE3" to="e14"/>
    <trip id="260" depart="1065.42" from="e2" to="e3"/>
    <trip id="261" depart="1069.52" from="gneE5" to="gneE6"/>
    <trip id="262" depart="1073.62" from="e11" to="gneE3"/>
    <trip id="263" depart="1077.72" from="e5" to="e10"/>
    <trip id="264" depart="1081.81" from="gneE12" to="e7"/>
    <trip id="265" depart="1085.91" from="gneE8" to="e7"/>
    <trip id="266" depart="1090.01" from="e6" to="e2"/>
    <trip id="267" depart="1094.11" from="e11" to="gneE11"/>
    <trip id="268" depart="1098.20" from="gneE10" to="gneE4"/>
    <trip id="269" depart="1102.30" from="e2" to="e13"/>
    <trip id="270" depart="1106.40" from="gneE6" to="e8"/>
    <trip id="271" depart="1110.50" from="gneE3" to="e10"/>
    <trip id="272" depart="1114.60" from="e2" to="e2"/>
    <trip id="273" depart="1118.69" from="gneE1" to="gneE5"/>
    <trip id="274" depart="1122.79" from="e6" to="e13"/>
    <trip id="275" depart="1126.89" from="gneE10" to="e10"/>
    <trip id="276" depart="1130.99" from="e5" to="gneE12"/>
    <trip id="277" depart="1135.08" from="e6" to="gneE4"/>
    <trip id="278" depart="1139.18" from="gneE7" to="e7"/>
    <trip id="279" depart="1143.28" from="gneE3" to="gneE5"/>
    <trip id="280" depart="1147.38" from="e7" to="e6"/>
    <trip id="281" depart="1151.48" from="gneE3" to="e13"/>
    <trip id="282" depart="1155.57" from="e12" to="gneE12"/>
    <trip id="283" depart="1159.67" from="e11" to="gneE9"/>
    <trip id="284" depart="1163.77" from="e8" to="gneE1"/>
    <trip id="285" depart="1167.87" from="e2" to="gneE10"/>
    <trip id="286" depart="1171.96" from="gneE5" to="gneE2"/>
    <trip id="287" depart="1176.06" from="gneE3" to="gneE1"/>
    <trip id="288" depart="1180.16" from="gneE6" to="e3"/>
    <trip id="289" depart="1184.26" from="gneE5" to="gneE10"/>
    <trip id="290" depart="1188.36" from="e7" to="gneE9"/>
    <trip id="291" depart="1192.45" from="e12" to="e7"/>
    <trip id="292" depart="1196.55" from="gneE6" to="e6"/>
    <trip id="293" depart="1200.65" from="gneE2" to="e13"/>
    <trip id="294" depart="1204.75" from="gneE9" to="e3"/>
    <trip id="295" depart="1208.84" from="gneE4" to="e13"/>
    <trip id="296" depart="1212.94" from="gneE9" to="gneE3"/>
    <trip id="297" depart="1217.04" from="gneE11" to="e3"/>
    <trip id="298" depart="1221.14" from="gneE1" to="gneE12"/>
    <trip id="299" depart="1225.24" from="e7" to="e11"/>
    <trip id="300" depart="1229.33" from="e11" to="gneE8"/>
    <trip id="301" depart="1233.43" from="e13" to="gneE11"/>
    <trip id="302" depart="1237.53" from="gneE1" to="gneE9"/>
    <trip id="303" depart="1241.63" from="e9" to="gneE6"/>
    <trip id="304" depart="1245.72" from="e9" to="e7"/>
    <trip id="305" depart="1249.82" from="e2" to="e6"/>
    <trip id="306" depart="1253.92" from="e13" to="gneE9"/>
    <trip id="307" depart="1258.02" from="gneE8" to="e5"/>
    <trip id="308" depart="1262.12" from="e2" to="gneE11"/>
    <trip id="309" depart="1266.21" from="e6" to="e9"/>
    <trip id="310" depart="1270.31" from="gneE10" to="gneE6"/>
    <trip id="311" depart="1274.41" from="gneE10" to="gneE4"/>
    <trip id="312" depart="1278.51" from="e5" to="gneE1"/>
    <trip id="313" depart="1282.60" from="gneE5" to="e10"/>
    <trip id="314" depart="1286.70" from="gneE4" to="gneE5"/>
    <trip id="315" depart="1290.80" from="e12" to="gneE8"/>
    <trip id="316" depart="1294.90" from="e10" to="gneE6"/>
    <trip id="317" depart="1299.00" from="gneE6" to="e7"/>
    <trip id="318" depart="1303.09" from="gneE9" to="e13"/>
    <trip id="319" depart="1307.19" from="e10" to="gneE5"/>
    <trip id="320" depart="1311.29" from="gneE4" to="e3"/>
    <trip id="321" depart="1315.39" from="gneE11" to="gneE2"/>
    <trip id="322" depart="1319.48" from="e10" to="gneE6"/>
    <trip id="323" depart="1323.58" from="gneE9" to="e10"/>
    <trip id="324" depart="1327.68" from="gneE11" to="e11"/>
    <trip id="325" depart="1331.78" from="gneE3" to="gneE3"/>
    <trip id="326" depart="1335.88" from="e13" to="gneE9"/>
    <trip id="327" depart="1339.97" from="gneE6" to="gneE7"/>
    <trip id="328" depart="1344.07" from="e5" to="gneE10"/>
    <trip id="329" depart="1348.17" from="gneE7" to="e12"/>
    <trip id="330" depart="1352.27" from="e13" to="e7"/>
    <trip id="331" depart="1356.36" from="e7" to="e10"/>
    <trip id="332" depart="1360.46" from="e7" to="gneE12"/>
    <trip id="333" depart="1364.56" from="e13" to="e5"/>
    <trip id="334" depart="1368.66" from="gneE9" to="gneE3"/>
    <trip id="335" depart="1372.76" from="e10" to="gneE8"/>
    <trip id="336" depart="1376.85" from="gneE12" to="gneE7"/>
    <trip id="337" depart="1380.95" from="gneE3" to="e5"/>
    <trip id="338" depart="1385.05" from="e6" to="e5"/>
    <trip id="339" depart="1389.15" from="gneE10" to="e2"/>
    <trip id="340" depart="1393.24" from="gneE10" to="gneE6"/>
    <trip id="341" depart="1397.34" from="gneE6" to="e7"/>
    <trip id="342" depart="1401.44" from="gneE5" to="gneE1"/>
    <trip id="343" depart="1405.54" from="gneE1" to="e2"/>
    <trip id="344" depart="1409.64" from="e7" to="gneE10"/>
    <trip id="345" depart="1413.73" from="gneE11" to="e11"/>
    <trip id="346" depart="1417.83" from="gneE4" to="gneE12"/>
    <trip id="347" depart="1421.93" from="e9" to="e5"/>
    <trip id="348" depart="1426.03" from="e8" to="gneE5"/>
    <trip id="349" depart="1430.12" from="gneE10" to="e12"/>
    <trip id="350" depart="1434.22" from="gneE4" to="e14"/>
    <trip id="351" depart="1438.32" from="gneE8" to="gneE11"/>
    <trip id="352" depart="1442.42" from="gneE2" to="e7"/>
    <trip id="353" depart="1446.52" from="gneE7" to="gneE1"/>
    <trip id="354" depart="1450.61" from="gneE1" to="gneE2"/>
    <trip id="355" depart="1454.71" from="e10" to="gneE10"/>
    <trip id="356" depart="1458.81" from="gneE10" to="e3"/>
    <trip id="357" depart="1462.91" from="gneE8" to="gneE4"/>
    <trip id="358" depart="1467.00" from="e2" to="gneE11"/>
    <trip id="359" depart="1471.10" from="e9" to="gneE6"/>
    <trip id="360" depart="1475.20" from="e5" to="gneE6"/>
    <trip id="361" depart="1479.30" from="e13" to="e10"/>
    <trip id="362" depart="1483.40" from="gneE7" to="e2"/>
    <trip id="363" depart="1487.49" from="gneE3" to="gneE5"/>
    <trip id="364" depart="1491.59" from="e14" to="gneE4"/>
    <trip id="365" depart="1495.69" from="e9" to="gneE9"/>
    <trip id="366" depart="1499.79" from="e12" to="e2"/>
    <trip id="367" depart="1503.88" from="e13" to="e3"/>
    <trip id="368" depart="1507.98" from="gneE11" to="gneE5"/>
    <trip id="369" depart="1512.08" from="e8" to="e12"/>
    <trip id="370" depart="1516.18" from="gneE5" to="e10"/>
    <trip id="371" depart="1520.28" from="e12" to="gneE8"/>
    <trip id="372" depart="1524.37" from="e12" to="gneE5"/>
    <trip id="373" depart="1528.47" from="e2" to="gneE5"/>
    <trip id="374" depart="1532.57" from="e5" to="e7"/>
    <trip id="375" depart="1536.67" from="gneE4" to="gneE7"/>
    <trip id="376" depart="1540.76" from="gneE3" to="e14"/>
    <trip id="377" depart="1544.86" from="gneE5" to="e13"/>
    <trip id="378" depart="1548.96" from="gneE4" to="e13"/>
    <trip id="379" depart="1553.06" from="e9" to="gneE6"/>
    <trip id="380" depart="1557.16" from="gneE6" to="e6"/>
    <trip id="381" depart="1561.25" from="e11" to="e6"/>
    <trip id="382" depart="1565.35" from="gneE8" to="gneE9"/>
    <trip id="383" depart="1569.45" from="e10" to="gneE9"/>
    <trip id="384" depart="1573.55" from="e12" to="gneE2"/>
    <trip id="385" depart="1577.64" from="e14" to="e12"/>
    <trip id="386" depart="1581.74" from="gneE10" to="gneE11"/>
    <trip id="387" depart="1585.84" from="gneE3" to="gneE8"/>
    <trip id="388" depart="1589.94" from="gneE8" to="gneE9"/>
    <trip id="389" depart="1594.04" from="gneE2" to="e13"/>
    <trip id="390" depart="1598.13" from="gneE4" to="e10"/>
    <trip id="391" depart="1602.23" from="e12" to="e11"/>
    <trip id="392" depart="1606.33" from="gneE1" to="gneE6"/>
    <trip id="393" depart="1610.43" from="gneE1" to="gneE3"/>
    <trip id="394" depart="1614.52" from="gneE4" to="e13"/>
    <trip id="395" depart="1618.62" from="gneE10" to="e7"/>
    <trip id="396" depart="1622.72" from="e14" to="gneE2"/>
    <trip id="397" depart="1626.82" from="e5" to="e12"/>
    <trip id="398" depart="1630.92" from="e9" to="gneE3"/>
    <trip id="399" depart="1635.01" from="gneE6" to="e7"/>
    <trip id="400" depart="1639.11" from="gneE12" to="e11"/>
    <trip id="401" depart="1643.21" from="gneE5" to="e8"/>
    <trip id="402" depart="1647.31" from="gneE2" to="gneE1"/>
    <trip id="403" depart="1651.40" from="gneE8" to="gneE3"/>
    <trip id="404" depart="1655.50" from="e3" to="e14"/>
    <trip id="405" depart="1659.60" from="gneE5" to="e2"/>
    <trip id="406" depart="1663.70" from="e3" to="e13"/>
    <trip id="407" depart="1667.80" from="e7" to="gneE1"/>
    <trip id="408" depart="1671.89" from="gneE11" to="gneE2"/>
    <trip id="409" depart="1675.99" from="gneE9" to="gneE4"/>
    <trip id="410" depart="1680.09" from="e3" to="gneE12"/>
    <trip id="411" depart="1684.19" from="gneE8" to="gneE7"/>
    <trip id="412" depart="1688.28" from="gneE3" to="gneE6"/>
    <trip id="413" depart="1692.38" from="e6" to="gneE4"/>
    <trip id="414" depart="1696.48" from="gneE3" to="e13"/>
    <trip id="415" depart="1700.58" from="e12" to="gneE8"/>
    <trip id="416" depart="1704.68" from="gneE12" to="gneE10"/>
    <trip id="417" depart="1708.77" from="e6" to="e11"/>
    <trip id="418" depart="1712.87" from="e3" to="e6"/>
    <trip id="419" depart="1716.97" from="e5" to="gneE5"/>
    <trip id="420" depart="1721.07" from="gneE11" to="gneE9"/>
    <trip id="421" depart="1725.16" from="gneE2" to="gneE1"/>
    <trip id="422" depart="1729.26" from="gneE12" to="e8"/>
    <trip id="423" depart="1733.36" from="gneE7" to="e6"/>
    <trip id="424" depart="1737.46" from="e11" to="e13"/>
    <trip id="425" depart="1741.56" from="e13" to="e8"/>
    <trip id="426" depart="1745.65" from="e8" to="e6"/>
    <trip id="427" depart="1749.75" from="gneE9" to="e7"/>
    <trip id="428" depart="1753.85" from="gneE3" to="gneE6"/>
    <trip id="429" depart="1757.95" from="e2" to="e2"/>
    <trip id="430" depart="1762.04" from="e2" to="e2"/>
    <trip id="431" depart="1766.14" from="e11" to="gneE1"/>
    <trip id="432" depart="1770.24" from="e3" to="e11"/>
    <trip id="433" depart="1774.34" from="e2" to="e10"/>
    <trip id="434" depart="1778.44" from="gneE8" to="gneE8"/>
    <trip id="435" depart="1782.53" from="gneE1" to="e11"/>
    <trip id="436" depart="1786.63" from="e6" to="gneE4"/>
    <trip id="437" depart="1790.73" from="gneE3" to="gneE5"/>
    <trip id="438" depart="1794.83" from="e12" to="gneE5"/>
    <trip id="439" depart="1798.92" from="e5" to="e8"/>
    <trip id="440" depart="1803.02" from="e3" to="gneE2"/>
    <trip id="441" depart="1807.12" from="gneE3" to="gneE2"/>
    <trip id="442" depart="1811.22" from="e13" to="e8"/>
    <trip id="443" depart="1815.32" from="gneE11" to="e6"/>
    <trip id="444" depart="1819.41" from="gneE3" to="gneE7"/>
    <trip id="445" depart="1823.51" from="gneE1" to="gneE10"/>
    <trip id="446" depart="1827.61" from="e6" to="e10"/>
    <trip id="447" depart="1831.71" from="gneE3" to="e14"/>
    <trip id="448" depart="1835.80" from="e3" to="e5"/>
    <trip id="449" depart="1839.90" from="e14" to="gneE1"/>
    <trip id="450" depart="1844.00" from="gneE11" to="e5"/>
</routes>
