<?xml version="1.0" encoding="UTF-8"?>
<!-- generated on 2021-03-15 18:37:38.646719 by $Id$ UNKNOWN
  options: 
-->
<routes xmlns:xsi="http://www.w3.org/2001/XMLSchema-instance" xsi:noNamespaceSchemaLocation="http://sumo.dlr.de/xsd/routes_file.xsd">
    <trip id="0" depart="0.00" from="gneE11" to="e10"/>
    <trip id="1" depart="5.51" from="gneE5" to="gneE1"/>
    <trip id="2" depart="11.01" from="gneE8" to="e5"/>
    <trip id="3" depart="16.52" from="e10" to="gneE4"/>
    <trip id="4" depart="22.03" from="e13" to="e14"/>
    <trip id="5" depart="27.53" from="gneE2" to="gneE9"/>
    <trip id="6" depart="33.04" from="gneE2" to="e7"/>
    <trip id="7" depart="38.55" from="e11" to="e7"/>
    <trip id="8" depart="44.05" from="e13" to="gneE5"/>
    <trip id="9" depart="49.56" from="e11" to="gneE3"/>
    <trip id="10" depart="55.07" from="e10" to="gneE11"/>
    <trip id="11" depart="60.58" from="gneE9" to="e9"/>
    <trip id="12" depart="66.08" from="gneE11" to="e5"/>
    <trip id="13" depart="71.59" from="gneE7" to="e6"/>
    <trip id="14" depart="77.10" from="e5" to="gneE10"/>
    <trip id="15" depart="82.60" from="e8" to="gneE3"/>
    <trip id="16" depart="88.11" from="e8" to="gneE5"/>
    <trip id="17" depart="93.62" from="gneE11" to="e2"/>
    <trip id="18" depart="99.12" from="e5" to="e10"/>
    <trip id="19" depart="104.63" from="e11" to="e2"/>
    <trip id="20" depart="110.14" from="gneE7" to="e8"/>
    <trip id="21" depart="115.64" from="gneE4" to="gneE7"/>
    <trip id="22" depart="121.15" from="e13" to="gneE4"/>
    <trip id="23" depart="126.66" from="e6" to="e11"/>
    <trip id="24" depart="132.16" from="gneE10" to="e8"/>
    <trip id="25" depart="137.67" from="gneE10" to="e8"/>
    <trip id="26" depart="143.18" from="gneE8" to="gneE8"/>
    <trip id="27" depart="148.68" from="e14" to="gneE7"/>
    <trip id="28" depart="154.19" from="e10" to="e2"/>
    <trip id="29" depart="159.70" from="gneE4" to="e9"/>
    <trip id="30" depart="165.21" from="e14" to="e9"/>
    <trip id="31" depart="170.71" from="gneE2" to="gneE2"/>
    <trip id="32" depart="176.22" from="e3" to="gneE11"/>
    <trip id="33" depart="181.73" from="gneE8" to="gneE3"/>
    <trip id="34" depart="187.23" from="gneE12" to="gneE11"/>
    <trip id="35" depart="192.74" from="gneE7" to="e2"/>
    <trip id="36" depart="198.25" from="gneE10" to="gneE7"/>
    <trip id="37" depart="203.75" from="gneE10" to="e10"/>
    <trip id="38" depart="209.26" from="e6" to="gneE4"/>
    <trip id="39" depart="214.77" from="gneE8" to="e5"/>
    <trip id="40" depart="220.27" from="e14" to="gneE11"/>
    <trip id="41" depart="225.78" from="gneE7" to="gneE2"/>
    <trip id="42" depart="231.29" from="e5" to="e7"/>
    <trip id="43" depart="236.79" from="e7" to="gneE7"/>
    <trip id="44" depart="242.30" from="gneE8" to="e10"/>
    <trip id="45" depart="247.81" from="e9" to="e14"/>
    <trip id="46" depart="253.32" from="gneE9" to="e2"/>
    <trip id="47" depart="258.82" from="e13" to="e6"/>
    <trip id="48" depart="264.33" from="gneE3" to="e7"/>
    <trip id="49" depart="269.84" from="gneE8" to="e10"/>
    <trip id="50" depart="275.34" from="e6" to="gneE6"/>
    <trip id="51" depart="280.85" from="e3" to="e13"/>
    <trip id="52" depart="286.36" from="e7" to="e5"/>
    <trip id="53" depart="291.86" from="gneE9" to="gneE11"/>
    <trip id="54" depart="297.37" from="e3" to="gneE11"/>
    <trip id="55" depart="302.88" from="e7" to="gneE2"/>
    <trip id="56" depart="308.38" from="gneE1" to="e10"/>
    <trip id="57" depart="313.89" from="e13" to="gneE9"/>
    <trip id="58" depart="319.40" from="e9" to="e6"/>
    <trip id="59" depart="324.90" from="gneE4" to="e10"/>
    <trip id="60" depart="330.41" from="e13" to="e8"/>
    <trip id="61" depart="335.92" from="e10" to="gneE6"/>
    <trip id="62" depart="341.42" from="gneE6" to="e9"/>
    <trip id="63" depart="346.93" from="e12" to="e3"/>
    <trip id="64" depart="352.44" from="gneE5" to="e6"/>
    <trip id="65" depart="357.95" from="gneE2" to="gneE4"/>
    <trip id="66" depart="363.45" from="gneE1" to="gneE12"/>
    <trip id="67" depart="368.96" from="e7" to="gneE2"/>
    <trip id="68" depart="374.47" from="e11" to="e2"/>
    <trip id="69" depart="379.97" from="gneE2" to="gneE5"/>
    <trip id="70" depart="385.48" from="gneE4" to="e13"/>
    <trip id="71" depart="390.99" from="gneE2" to="e8"/>
    <trip id="72" depart="396.49" from="gneE6" to="gneE9"/>
    <trip id="73" depart="402.00" from="gneE8" to="e3"/>
    <trip id="74" depart="407.51" from="gneE10" to="e5"/>
    <trip id="75" depart="413.01" from="gneE2" to="e14"/>
    <trip id="76" depart="418.52" from="e3" to="e6"/>
    <trip id="77" depart="424.03" from="e3" to="e10"/>
    <trip id="78" depart="429.53" from="gneE12" to="e12"/>
    <trip id="79" depart="435.04" from="gneE5" to="gneE6"/>
    <trip id="80" depart="440.55" from="gneE8" to="gneE3"/>
    <trip id="81" depart="446.05" from="e8" to="gneE7"/>
    <trip id="82" depart="451.56" from="gneE2" to="e5"/>
    <trip id="83" depart="457.07" from="e5" to="gneE10"/>
    <trip id="84" depart="462.58" from="gneE2" to="e14"/>
    <trip id="85" depart="468.08" from="gneE7" to="e9"/>
    <trip id="86" depart="473.59" from="e3" to="e7"/>
    <trip id="87" depart="479.10" from="e2" to="gneE12"/>
    <trip id="88" depart="484.60" from="e12" to="gneE3"/>
    <trip id="89" depart="490.11" from="e8" to="gneE2"/>
    <trip id="90" depart="495.62" from="gneE3" to="gneE3"/>
    <trip id="91" depart="501.12" from="e14" to="e6"/>
    <trip id="92" depart="506.63" from="gneE11" to="e14"/>
    <trip id="93" depart="512.14" from="e2" to="gneE5"/>
    <trip id="94" depart="517.64" from="gneE6" to="e7"/>
    <trip id="95" depart="523.15" from="gneE6" to="gneE7"/>
    <trip id="96" depart="528.66" from="gneE1" to="e12"/>
    <trip id="97" depart="534.16" from="e7" to="e9"/>
    <trip id="98" depart="539.67" from="gneE12" to="gneE11"/>
    <trip id="99" depart="545.18" from="e14" to="e5"/>
    <trip id="100" depart="550.68" from="gneE4" to="gneE9"/>
    <trip id="101" depart="556.19" from="e8" to="gneE7"/>
    <trip id="102" depart="561.70" from="e3" to="gneE3"/>
    <trip id="103" depart="567.21" from="e12" to="e6"/>
    <trip id="104" depart="572.71" from="e10" to="gneE1"/>
    <trip id="105" depart="578.22" from="e14" to="e13"/>
    <trip id="106" depart="583.73" from="gneE4" to="e12"/>
    <trip id="107" depart="589.23" from="gneE10" to="e14"/>
    <trip id="108" depart="594.74" from="e9" to="e14"/>
    <trip id="109" depart="600.25" from="e2" to="gneE4"/>
    <trip id="110" depart="605.75" from="gneE8" to="gneE8"/>
    <trip id="111" depart="611.26" from="gneE11" to="gneE5"/>
    <trip id="112" depart="616.77" from="gneE2" to="e13"/>
    <trip id="113" depart="622.27" from="gneE8" to="e8"/>
    <trip id="114" depart="627.78" from="e7" to="gneE1"/>
    <trip id="115" depart="633.29" from="e6" to="e5"/>
    <trip id="116" depart="638.79" from="gneE1" to="e6"/>
    <trip id="117" depart="644.30" from="e14" to="gneE12"/>
    <trip id="118" depart="649.81" from="gneE6" to="e12"/>
    <trip id="119" depart="655.32" from="e3" to="e13"/>
    <trip id="120" depart="660.82" from="gneE9" to="e5"/>
    <trip id="121" depart="666.33" from="e2" to="gneE10"/>
    <trip id="122" depart="671.84" from="e13" to="e13"/>
    <trip id="123" depart="677.34" from="gneE2" to="e14"/>
    <trip id="124" depart="682.85" from="e13" to="gneE3"/>
    <trip id="125" depart="688.36" from="e5" to="e2"/>
    <trip id="126" depart="693.86" from="gneE6" to="e2"/>
    <trip id="127" depart="699.37" from="gneE12" to="e7"/>
    <trip id="128" depart="704.88" from="e8" to="gneE4"/>
    <trip id="129" depart="710.38" from="e3" to="gneE6"/>
    <trip id="130" depart="715.89" from="gneE1" to="gneE11"/>
    <trip id="131" depart="721.40" from="gneE4" to="gneE5"/>
    <trip id="132" depart="726.90" from="e13" to="gneE3"/>
    <trip id="133" depart="732.41" from="e2" to="e14"/>
    <trip id="134" depart="737.92" from="gneE3" to="gneE9"/>
    <trip id="135" depart="743.42" from="gneE8" to="gneE10"/>
    <trip id="136" depart="748.93" from="e6" to="gneE6"/>
    <trip id="137" depart="754.44" from="e6" to="gneE8"/>
    <trip id="138" depart="759.95" from="gneE6" to="gneE8"/>
    <trip id="139" depart="765.45" from="e8" to="gneE1"/>
    <trip id="140" depart="770.96" from="e3" to="gneE6"/>
    <trip id="141" depart="776.47" from="e2" to="e2"/>
    <trip id="142" depart="781.97" from="e13" to="gneE9"/>
    <trip id="143" depart="787.48" from="e12" to="e7"/>
    <trip id="144" depart="792.99" from="e2" to="e9"/>
    <trip id="145" depart="798.49" from="e8" to="e13"/>
    <trip id="146" depart="804.00" from="e2" to="gneE3"/>
    <trip id="147" depart="809.51" from="gneE12" to="e5"/>
    <trip id="148" depart="815.01" from="e9" to="e9"/>
    <trip id="149" depart="820.52" from="e8" to="e8"/>
    <trip id="150" depart="826.03" from="gneE2" to="gneE5"/>
    <trip id="151" depart="831.53" from="e2" to="gneE11"/>
    <trip id="152" depart="837.04" from="gneE9" to="gneE11"/>
    <trip id="153" depart="842.55" from="gneE9" to="gneE12"/>
    <trip id="154" depart="848.05" from="gneE1" to="gneE3"/>
    <trip id="155" depart="853.56" from="e7" to="e7"/>
    <trip id="156" depart="859.07" from="e10" to="gneE9"/>
    <trip id="157" depart="864.58" from="gneE3" to="gneE8"/>
    <trip id="158" depart="870.08" from="e12" to="gneE7"/>
    <trip id="159" depart="875.59" from="gneE12" to="gneE8"/>
    <trip id="160" depart="881.10" from="gneE7" to="e9"/>
    <trip id="161" depart="886.60" from="gneE8" to="gneE10"/>
    <trip id="162" depart="892.11" from="e2" to="gneE10"/>
    <trip id="163" depart="897.62" from="e7" to="gneE4"/>
    <trip id="164" depart="903.12" from="gneE12" to="gneE12"/>
    <trip id="165" depart="908.63" from="e13" to="e12"/>
    <trip id="166" depart="914.14" from="gneE12" to="e7"/>
    <trip id="167" depart="919.64" from="gneE12" to="e10"/>
    <trip id="168" depart="925.15" from="gneE10" to="gneE12"/>
    <trip id="169" depart="930.66" from="e10" to="e9"/>
    <trip id="170" depart="936.16" from="e5" to="e9"/>
    <trip id="171" depart="941.67" from="e14" to="e9"/>
    <trip id="172" depart="947.18" from="gneE3" to="gneE2"/>
    <trip id="173" depart="952.68" from="gneE8" to="e11"/>
    <trip id="174" depart="958.19" from="e14" to="gneE4"/>
    <trip id="175" depart="963.70" from="gneE4" to="e5"/>
    <trip id="176" depart="969.21" from="gneE1" to="gneE12"/>
    <trip id="177" depart="974.71" from="e2" to="gneE4"/>
    <trip id="178" depart="980.22" from="gneE11" to="gneE5"/>
    <trip id="179" depart="985.73" from="e3" to="gneE12"/>
    <trip id="180" depart="991.23" from="e12" to="e12"/>
    <trip id="181" depart="996.74" from="gneE12" to="e5"/>
    <trip id="182" depart="1002.25" from="e14" to="gneE2"/>
    <trip id="183" depart="1007.75" from="e11" to="e8"/>
    <trip id="184" depart="1013.26" from="e7" to="gneE3"/>
    <trip id="185" depart="1018.77" from="gneE11" to="e14"/>
    <trip id="186" depart="1024.27" from="gneE1" to="gneE9"/>
    <trip id="187" depart="1029.78" from="e7" to="e14"/>
    <trip id="188" depart="1035.29" from="e3" to="e14"/>
    <trip id="189" depart="1040.79" from="gneE10" to="e12"/>
    <trip id="190" depart="1046.30" from="e9" to="e11"/>
    <trip id="191" depart="1051.81" from="e9" to="gneE4"/>
    <trip id="192" depart="1057.32" from="gneE9" to="gneE3"/>
    <trip id="193" depart="1062.82" from="gneE3" to="e5"/>
    <trip id="194" depart="1068.33" from="gneE10" to="e13"/>
    <trip id="195" depart="1073.84" from="gneE9" to="e10"/>
    <trip id="196" depart="1079.34" from="e14" to="e14"/>
    <trip id="197" depart="1084.85" from="gneE10" to="e12"/>
    <trip id="198" depart="1090.36" from="e12" to="gneE4"/>
    <trip id="199" depart="1095.86" from="e14" to="gneE4"/>
    <trip id="200" depart="1101.37" from="e2" to="gneE5"/>
    <trip id="201" depart="1106.88" from="e3" to="gneE1"/>
    <trip id="202" depart="1112.38" from="gneE7" to="gneE7"/>
    <trip id="203" depart="1117.89" from="gneE3" to="e8"/>
    <trip id="204" depart="1123.40" from="e12" to="gneE12"/>
    <trip id="205" depart="1128.90" from="e9" to="gneE3"/>
    <trip id="206" depart="1134.41" from="gneE2" to="e10"/>
    <trip id="207" depart="1139.92" from="gneE7" to="gneE8"/>
    <trip id="208" depart="1145.42" from="gneE3" to="gneE10"/>
    <trip id="209" depart="1150.93" from="e13" to="e11"/>
    <trip id="210" depart="1156.44" from="e5" to="e13"/>
    <trip id="211" depart="1161.95" from="gneE8" to="e6"/>
    <trip id="212" depart="1167.45" from="gneE10" to="gneE6"/>
    <trip id="213" depart="1172.96" from="e12" to="e10"/>
    <trip id="214" depart="1178.47" from="e11" to="gneE7"/>
    <trip id="215" depart="1183.97" from="e6" to="e8"/>
    <trip id="216" depart="1189.48" from="gneE11" to="e10"/>
    <trip id="217" depart="1194.99" from="gneE11" to="gneE5"/>
    <trip id="218" depart="1200.49" from="e12" to="gneE1"/>
    <trip id="219" depart="1206.00" from="gneE2" to="gneE11"/>
    <trip id="220" depart="1211.51" from="gneE6" to="gneE9"/>
    <trip id="221" depart="1217.01" from="e2" to="e8"/>
    <trip id="222" depart="1222.52" from="e2" to="e12"/>
    <trip id="223" depart="1228.03" from="gneE4" to="e14"/>
    <trip id="224" depart="1233.53" from="e8" to="gneE5"/>
    <trip id="225" depart="1239.04" from="gneE10" to="e7"/>
    <trip id="226" depart="1244.55" from="e9" to="e5"/>
    <trip id="227" depart="1250.05" from="e11" to="gneE10"/>
    <trip id="228" depart="1255.56" from="e6" to="e8"/>
    <trip id="229" depart="1261.07" from="e9" to="gneE6"/>
    <trip id="230" depart="1266.58" from="gneE5" to="gneE9"/>
    <trip id="231" depart="1272.08" from="gneE10" to="e12"/>
    <trip id="232" depart="1277.59" from="gneE5" to="e12"/>
    <trip id="233" depart="1283.10" from="e8" to="e14"/>
    <trip id="234" depart="1288.60" from="e6" to="gneE8"/>
    <trip id="235" depart="1294.11" from="e7" to="e2"/>
    <trip id="236" depart="1299.62" from="gneE9" to="gneE11"/>
    <trip id="237" depart="1305.12" from="e10" to="e13"/>
    <trip id="238" depart="1310.63" from="gneE4" to="gneE11"/>
    <trip id="239" depart="1316.14" from="gneE3" to="gneE10"/>
    <trip id="240" depart="1321.64" from="gneE6" to="gneE2"/>
    <trip id="241" depart="1327.15" from="gneE7" to="e7"/>
    <trip id="242" depart="1332.66" from="gneE8" to="e9"/>
    <trip id="243" depart="1338.16" from="gneE4" to="gneE2"/>
    <trip id="244" depart="1343.67" from="gneE8" to="e12"/>
    <trip id="245" depart="1349.18" from="e12" to="gneE6"/>
    <trip id="246" depart="1354.68" from="gneE7" to="e13"/>
    <trip id="247" depart="1360.19" from="e3" to="gneE2"/>
    <trip id="248" depart="1365.70" from="e10" to="gneE7"/>
    <trip id="249" depart="1371.21" from="e11" to="e12"/>
    <trip id="250" depart="1376.71" from="gneE4" to="gneE1"/>
    <trip id="251" depart="1382.22" from="gneE11" to="e6"/>
    <trip id="252" depart="1387.73" from="gneE12" to="e11"/>
    <trip id="253" depart="1393.23" from="e13" to="e6"/>
    <trip id="254" depart="1398.74" from="e10" to="e2"/>
    <trip id="255" depart="1404.25" from="e8" to="gneE1"/>
    <trip id="256" depart="1409.75" from="e8" to="e2"/>
    <trip id="257" depart="1415.26" from="e11" to="e10"/>
    <trip id="258" depart="1420.77" from="e5" to="e7"/>
    <trip id="259" depart="1426.27" from="gneE9" to="e2"/>
    <trip id="260" depart="1431.78" from="gneE8" to="gneE8"/>
    <trip id="261" depart="1437.29" from="e11" to="e9"/>
    <trip id="262" depart="1442.79" from="gneE3" to="gneE11"/>
    <trip id="263" depart="1448.30" from="gneE1" to="gneE12"/>
    <trip id="264" depart="1453.81" from="gneE5" to="e7"/>
    <trip id="265" depart="1459.32" from="gneE3" to="e2"/>
    <trip id="266" depart="1464.82" from="gneE10" to="e11"/>
    <trip id="267" depart="1470.33" from="e6" to="e12"/>
    <trip id="268" depart="1475.84" from="gneE1" to="e8"/>
    <trip id="269" depart="1481.34" from="gneE7" to="gneE12"/>
    <trip id="270" depart="1486.85" from="e12" to="gneE8"/>
    <trip id="271" depart="1492.36" from="gneE5" to="gneE6"/>
    <trip id="272" depart="1497.86" from="gneE9" to="gneE2"/>
    <trip id="273" depart="1503.37" from="gneE11" to="e8"/>
    <trip id="274" depart="1508.88" from="e8" to="e13"/>
    <trip id="275" depart="1514.38" from="gneE3" to="gneE11"/>
    <trip id="276" depart="1519.89" from="e6" to="e8"/>
    <trip id="277" depart="1525.40" from="e7" to="gneE10"/>
    <trip id="278" depart="1530.90" from="e8" to="gneE9"/>
    <trip id="279" depart="1536.41" from="gneE10" to="e5"/>
    <trip id="280" depart="1541.92" from="e9" to="e10"/>
    <trip id="281" depart="1547.42" from="gneE8" to="gneE1"/>
    <trip id="282" depart="1552.93" from="e12" to="gneE4"/>
    <trip id="283" depart="1558.44" from="gneE1" to="gneE6"/>
    <trip id="284" depart="1563.95" from="e2" to="e8"/>
    <trip id="285" depart="1569.45" from="gneE1" to="gneE11"/>
    <trip id="286" depart="1574.96" from="gneE8" to="e2"/>
    <trip id="287" depart="1580.47" from="e11" to="gneE8"/>
    <trip id="288" depart="1585.97" from="gneE1" to="e14"/>
    <trip id="289" depart="1591.48" from="gneE9" to="e3"/>
    <trip id="290" depart="1596.99" from="e13" to="e3"/>
    <trip id="291" depart="1602.49" from="e11" to="gneE3"/>
    <trip id="292" depart="1608.00" from="e2" to="gneE4"/>
    <trip id="293" depart="1613.51" from="gneE5" to="gneE7"/>
    <trip id="294" depart="1619.01" from="e14" to="e14"/>
    <trip id="295" depart="1624.52" from="gneE11" to="gneE12"/>
    <trip id="296" depart="1630.03" from="gneE10" to="e6"/>
    <trip id="297" depart="1635.53" from="e9" to="e7"/>
    <trip id="298" depart="1641.04" from="e13" to="gneE9"/>
    <trip id="299" depart="1646.55" from="e5" to="gneE2"/>
    <trip id="300" depart="1652.05" from="gneE4" to="gneE6"/>
    <trip id="301" depart="1657.56" from="e7" to="gneE6"/>
    <trip id="302" depart="1663.07" from="gneE2" to="gneE9"/>
    <trip id="303" depart="1668.58" from="gneE6" to="e11"/>
    <trip id="304" depart="1674.08" from="gneE7" to="gneE12"/>
    <trip id="305" depart="1679.59" from="gneE5" to="e7"/>
    <trip id="306" depart="1685.10" from="e10" to="gneE2"/>
    <trip id="307" depart="1690.60" from="e2" to="e7"/>
    <trip id="308" depart="1696.11" from="e5" to="e3"/>
    <trip id="309" depart="1701.62" from="gneE5" to="e9"/>
    <trip id="310" depart="1707.12" from="gneE7" to="gneE11"/>
    <trip id="311" depart="1712.63" from="gneE2" to="gneE6"/>
    <trip id="312" depart="1718.14" from="gneE4" to="gneE4"/>
    <trip id="313" depart="1723.64" from="gneE3" to="e2"/>
    <trip id="314" depart="1729.15" from="e7" to="e14"/>
    <trip id="315" depart="1734.66" from="gneE9" to="e2"/>
    <trip id="316" depart="1740.16" from="e9" to="gneE1"/>
    <trip id="317" depart="1745.67" from="gneE4" to="e5"/>
    <trip id="318" depart="1751.18" from="e5" to="gneE9"/>
    <trip id="319" depart="1756.68" from="gneE1" to="gneE3"/>
    <trip id="320" depart="1762.19" from="e8" to="gneE1"/>
    <trip id="321" depart="1767.70" from="gneE10" to="e2"/>
    <trip id="322" depart="1773.21" from="e9" to="e3"/>
    <trip id="323" depart="1778.71" from="e6" to="e10"/>
    <trip id="324" depart="1784.22" from="gneE1" to="gneE5"/>
    <trip id="325" depart="1789.73" from="e10" to="gneE6"/>
    <trip id="326" depart="1795.23" from="gneE10" to="e6"/>
    <trip id="327" depart="1800.74" from="gneE11" to="gneE10"/>
    <trip id="328" depart="1806.25" from="gneE9" to="e2"/>
    <trip id="329" depart="1811.75" from="gneE12" to="e10"/>
    <trip id="330" depart="1817.26" from="gneE6" to="gneE9"/>
    <trip id="331" depart="1822.77" from="gneE5" to="e7"/>
    <trip id="332" depart="1828.27" from="gneE12" to="gneE6"/>
    <trip id="333" depart="1833.78" from="e6" to="e5"/>
    <trip id="334" depart="1839.29" from="gneE11" to="e2"/>
    <trip id="335" depart="1844.79" from="e13" to="e9"/>
    <trip id="336" depart="1850.30" from="e9" to="gneE9"/>
    <trip id="337" depart="1855.81" from="e13" to="e13"/>
    <trip id="338" depart="1861.32" from="e13" to="e10"/>
    <trip id="339" depart="1866.82" from="e5" to="gneE7"/>
    <trip id="340" depart="1872.33" from="gneE1" to="gneE6"/>
    <trip id="341" depart="1877.84" from="gneE5" to="e2"/>
    <trip id="342" depart="1883.34" from="e14" to="gneE1"/>
    <trip id="343" depart="1888.85" from="gneE1" to="gneE11"/>
    <trip id="344" depart="1894.36" from="gneE10" to="e9"/>
    <trip id="345" depart="1899.86" from="e14" to="e6"/>
    <trip id="346" depart="1905.37" from="e3" to="gneE12"/>
    <trip id="347" depart="1910.88" from="e8" to="e2"/>
    <trip id="348" depart="1916.38" from="gneE2" to="e5"/>
    <trip id="349" depart="1921.89" from="e11" to="gneE3"/>
    <trip id="350" depart="1927.40" from="gneE7" to="gneE8"/>
    <trip id="351" depart="1932.90" from="e13" to="gneE10"/>
    <trip id="352" depart="1938.41" from="e5" to="gneE10"/>
    <trip id="353" depart="1943.92" from="e2" to="gneE4"/>
    <trip id="354" depart="1949.42" from="e10" to="gneE9"/>
    <trip id="355" depart="1954.93" from="gneE9" to="gneE4"/>
    <trip id="356" depart="1960.44" from="gneE10" to="gneE11"/>
    <trip id="357" depart="1965.95" from="e8" to="gneE1"/>
    <trip id="358" depart="1971.45" from="e9" to="e3"/>
    <trip id="359" depart="1976.96" from="gneE2" to="e5"/>
    <trip id="360" depart="1982.47" from="gneE11" to="e10"/>
    <trip id="361" depart="1987.97" from="e2" to="gneE5"/>
    <trip id="362" depart="1993.48" from="gneE10" to="e9"/>
    <trip id="363" depart="1998.99" from="e14" to="gneE10"/>
    <trip id="364" depart="2004.49" from="gneE2" to="gneE7"/>
    <trip id="365" depart="2010.00" from="e9" to="e2"/>
    <trip id="366" depart="2015.51" from="e13" to="gneE6"/>
    <trip id="367" depart="2021.01" from="gneE6" to="e11"/>
    <trip id="368" depart="2026.52" from="gneE1" to="gneE11"/>
    <trip id="369" depart="2032.03" from="gneE10" to="e14"/>
    <trip id="370" depart="2037.53" from="e8" to="gneE6"/>
    <trip id="371" depart="2043.04" from="e9" to="e2"/>
    <trip id="372" depart="2048.55" from="gneE8" to="e13"/>
    <trip id="373" depart="2054.05" from="gneE12" to="gneE8"/>
    <trip id="374" depart="2059.56" from="gneE4" to="gneE1"/>
    <trip id="375" depart="2065.07" from="gneE10" to="e14"/>
    <trip id="376" depart="2070.58" from="e14" to="gneE8"/>
    <trip id="377" depart="2076.08" from="e6" to="gneE8"/>
    <trip id="378" depart="2081.59" from="e6" to="e3"/>
    <trip id="379" depart="2087.10" from="gneE2" to="e6"/>
    <trip id="380" depart="2092.60" from="gneE7" to="e13"/>
    <trip id="381" depart="2098.11" from="e14" to="gneE8"/>
    <trip id="382" depart="2103.62" from="e8" to="e10"/>
    <trip id="383" depart="2109.12" from="gneE6" to="gneE2"/>
    <trip id="384" depart="2114.63" from="gneE10" to="gneE9"/>
    <trip id="385" depart="2120.14" from="e3" to="gneE2"/>
    <trip id="386" depart="2125.64" from="gneE10" to="e2"/>
    <trip id="387" depart="2131.15" from="gneE6" to="gneE8"/>
    <trip id="388" depart="2136.66" from="gneE9" to="gneE6"/>
    <trip id="389" depart="2142.16" from="gneE11" to="gneE8"/>
    <trip id="390" depart="2147.67" from="e7" to="gneE6"/>
    <trip id="391" depart="2153.18" from="gneE9" to="gneE4"/>
    <trip id="392" depart="2158.68" from="e2" to="e10"/>
    <trip id="393" depart="2164.19" from="e9" to="e10"/>
    <trip id="394" depart="2169.70" from="gneE1" to="gneE4"/>
    <trip id="395" depart="2175.21" from="gneE3" to="gneE11"/>
    <trip id="396" depart="2180.71" from="gneE9" to="e11"/>
    <trip id="397" depart="2186.22" from="e10" to="e2"/>
    <trip id="398" depart="2191.73" from="e6" to="e9"/>
    <trip id="399" depart="2197.23" from="gneE9" to="e6"/>
    <trip id="400" depart="2202.74" from="gneE1" to="gneE9"/>
    <trip id="401" depart="2208.25" from="e13" to="gneE5"/>
    <trip id="402" depart="2213.75" from="e10" to="e8"/>
    <trip id="403" depart="2219.26" from="e12" to="e14"/>
    <trip id="404" depart="2224.77" from="gneE4" to="e7"/>
    <trip id="405" depart="2230.27" from="e13" to="gneE4"/>
    <trip id="406" depart="2235.78" from="gneE10" to="e14"/>
    <trip id="407" depart="2241.29" from="e11" to="gneE11"/>
    <trip id="408" depart="2246.79" from="e13" to="e9"/>
    <trip id="409" depart="2252.30" from="e3" to="gneE5"/>
    <trip id="410" depart="2257.81" from="gneE11" to="e9"/>
    <trip id="411" depart="2263.32" from="e9" to="e11"/>
    <trip id="412" depart="2268.82" from="e12" to="gneE4"/>
    <trip id="413" depart="2274.33" from="gneE7" to="gneE10"/>
    <trip id="414" depart="2279.84" from="e7" to="e11"/>
    <trip id="415" depart="2285.34" from="e5" to="gneE2"/>
    <trip id="416" depart="2290.85" from="gneE10" to="gneE10"/>
    <trip id="417" depart="2296.36" from="e12" to="e13"/>
    <trip id="418" depart="2301.86" from="e12" to="gneE2"/>
    <trip id="419" depart="2307.37" from="gneE7" to="e12"/>
    <trip id="420" depart="2312.88" from="gneE1" to="gneE6"/>
    <trip id="421" depart="2318.38" from="gneE9" to="e13"/>
    <trip id="422" depart="2323.89" from="gneE1" to="e13"/>
    <trip id="423" depart="2329.40" from="gneE5" to="e8"/>
    <trip id="424" depart="2334.90" from="gneE4" to="gneE4"/>
    <trip id="425" depart="2340.41" from="e2" to="gneE5"/>
    <trip id="426" depart="2345.92" from="gneE4" to="gneE9"/>
    <trip id="427" depart="2351.42" from="gneE1" to="e8"/>
    <trip id="428" depart="2356.93" from="e8" to="e8"/>
    <trip id="429" depart="2362.44" from="e10" to="e10"/>
    <trip id="430" depart="2367.95" from="e10" to="e6"/>
    <trip id="431" depart="2373.45" from="gneE1" to="e3"/>
    <trip id="432" depart="2378.96" from="gneE11" to="e10"/>
    <trip id="433" depart="2384.47" from="e6" to="e11"/>
    <trip id="434" depart="2389.97" from="gneE4" to="e11"/>
    <trip id="435" depart="2395.48" from="gneE11" to="e9"/>
    <trip id="436" depart="2400.99" from="gneE11" to="e11"/>
    <trip id="437" depart="2406.49" from="e13" to="e12"/>
    <trip id="438" depart="2412.00" from="e10" to="gneE3"/>
    <trip id="439" depart="2417.51" from="gneE5" to="gneE12"/>
    <trip id="440" depart="2423.01" from="e14" to="e11"/>
    <trip id="441" depart="2428.52" from="e3" to="e13"/>
    <trip id="442" depart="2434.03" from="e3" to="e2"/>
    <trip id="443" depart="2439.53" from="e5" to="e12"/>
    <trip id="444" depart="2445.04" from="e12" to="e10"/>
    <trip id="445" depart="2450.55" from="e8" to="e10"/>
    <trip id="446" depart="2456.05" from="e8" to="e8"/>
    <trip id="447" depart="2461.56" from="e12" to="e12"/>
    <trip id="448" depart="2467.07" from="e14" to="e5"/>
    <trip id="449" depart="2472.58" from="e14" to="e8"/>
    <trip id="450" depart="2478.08" from="e11" to="e10"/>
    <trip id="451" depart="2483.59" from="gneE12" to="e12"/>
    <trip id="452" depart="2489.10" from="e14" to="gneE9"/>
    <trip id="453" depart="2494.60" from="e5" to="gneE2"/>
    <trip id="454" depart="2500.11" from="gneE10" to="e3"/>
    <trip id="455" depart="2505.62" from="gneE11" to="gneE10"/>
    <trip id="456" depart="2511.12" from="gneE1" to="e12"/>
    <trip id="457" depart="2516.63" from="gneE1" to="gneE8"/>
    <trip id="458" depart="2522.14" from="e12" to="e8"/>
    <trip id="459" depart="2527.64" from="e2" to="gneE1"/>
    <trip id="460" depart="2533.15" from="gneE7" to="e5"/>
    <trip id="461" depart="2538.66" from="e6" to="gneE2"/>
    <trip id="462" depart="2544.16" from="gneE3" to="gneE8"/>
    <trip id="463" depart="2549.67" from="e2" to="e8"/>
    <trip id="464" depart="2555.18" from="gneE7" to="gneE10"/>
    <trip id="465" depart="2560.68" from="gneE2" to="e13"/>
    <trip id="466" depart="2566.19" from="e13" to="e3"/>
    <trip id="467" depart="2571.70" from="gneE9" to="e5"/>
    <trip id="468" depart="2577.21" from="gneE11" to="e9"/>
    <trip id="469" depart="2582.71" from="e10" to="e7"/>
    <trip id="470" depart="2588.22" from="gneE3" to="gneE4"/>
    <trip id="471" depart="2593.73" from="gneE5" to="gneE3"/>
    <trip id="472" depart="2599.23" from="gneE11" to="e8"/>
    <trip id="473" depart="2604.74" from="gneE10" to="gneE11"/>
    <trip id="474" depart="2610.25" from="gneE11" to="e3"/>
    <trip id="475" depart="2615.75" from="e13" to="gneE5"/>
    <trip id="476" depart="2621.26" from="gneE11" to="e8"/>
    <trip id="477" depart="2626.77" from="gneE7" to="gneE12"/>
    <trip id="478" depart="2632.27" from="e9" to="gneE11"/>
    <trip id="479" depart="2637.78" from="gneE5" to="e2"/>
    <trip id="480" depart="2643.29" from="gneE12" to="e10"/>
    <trip id="481" depart="2648.79" from="e9" to="e13"/>
    <trip id="482" depart="2654.30" from="e3" to="e2"/>
    <trip id="483" depart="2659.81" from="e5" to="e7"/>
    <trip id="484" depart="2665.32" from="e12" to="e2"/>
    <trip id="485" depart="2670.82" from="e11" to="e11"/>
    <trip id="486" depart="2676.33" from="gneE8" to="e12"/>
    <trip id="487" depart="2681.84" from="e12" to="gneE3"/>
    <trip id="488" depart="2687.34" from="e10" to="e8"/>
    <trip id="489" depart="2692.85" from="gneE4" to="gneE8"/>
    <trip id="490" depart="2698.36" from="e10" to="e8"/>
    <trip id="491" depart="2703.86" from="e10" to="gneE6"/>
    <trip id="492" depart="2709.37" from="e13" to="e3"/>
    <trip id="493" depart="2714.88" from="e12" to="e8"/>
    <trip id="494" depart="2720.38" from="e5" to="e8"/>
    <trip id="495" depart="2725.89" from="gneE9" to="e6"/>
    <trip id="496" depart="2731.40" from="gneE3" to="e14"/>
    <trip id="497" depart="2736.90" from="e11" to="e6"/>
    <trip id="498" depart="2742.41" from="e6" to="e12"/>
    <trip id="499" depart="2747.92" from="gneE3" to="e12"/>
    <trip id="500" depart="2753.42" from="e7" to="gneE5"/>
    <trip id="501" depart="2758.93" from="gneE9" to="e7"/>
    <trip id="502" depart="2764.44" from="e13" to="e7"/>
    <trip id="503" depart="2769.95" from="gneE8" to="e10"/>