<routes>
        <vType id="typeWE" accel="0.8" decel="4.5" sigma="0.5" length="2.85" minGap="1" maxSpeed="30" guiShape="passenger"/>
        <vType id="typeNS" accel="0.8" decel="5" sigma="0.5" length="2.7" minGap="1" maxSpeed="30" guiShape="emergency"/>
        <vType id="typeSN1" accel="0.8" decel="4.5" sigma="0.5" length="2.7" minGap="1" maxSpeed="30" guiShape="bus"/>
        <vType id="typeSE" accel="0.8" decel="4.5" sigma="0.5" length="2.7" minGap="1" maxSpeed="30" guiShape="bus"/>
        <vType id="typeNW" accel="0.8" decel="4.5" sigma="0.5" length="2.7" minGap="1" maxSpeed="30" guiShape="emergency"/>
        
        <route id="right" edges="51o 1i 2o 52i" />
        <route id="left" edges="52o 2i 1o 51i" />
        <route id="down" edges="54o 4i 3o 53i" />
        <route id="up" edges="53o 3i 4o 54i" />
        <route id="upleft" edges="54o 4i 1o 51i" />
        <route id="southright" edges="53o 3i 2o 52i" />
    <vehicle id="right_0" type="typeWE" route="right" depart="0" />
    <vehicle id="down_1" type="typeNS" route="down" depart="0" color="1,0,0"/>
    <vehicle id="southright_2" type="typeSE" route="southright" depart="1" />
    <vehicle id="left_3" type="typeWE" route="left" depart="2" />
    <vehicle id="right_4" type="typeWE" route="right" depart="3" />
    <vehicle id="left_5" type="typeWE" route="left" depart="3" />
    <vehicle id="left_6" type="typeWE" route="left" depart="4" />
    <vehicle id="upleft_7" type="typeNW" route="upleft" depart="6" />
    <vehicle id="down_8" type="typeNS" route="down" depart="6" color="1,0,0"/>
    <vehicle id="left_9" type="typeWE" route="left" depart="7" />
    <vehicle id="southright_10" type="typeSE" route="southright" depart="8" />
    <vehicle id="down_11" type="typeNS" route="down" depart="10" color="1,0,0"/>
    <vehicle id="upleft_12" type="typeNW" route="upleft" depart="11" />
    <vehicle id="right_13" type="typeWE" route="right" depart="13" />
    <vehicle id="left_14" type="typeWE" route="left" depart="17" />
    <vehicle id="upleft_15" type="typeNW" route="upleft" depart="17" />
    <vehicle id="up_16" type="typeSN1" route="up" depart="17"/>
    <vehicle id="right_17" type="typeWE" route="right" depart="18" />
    <vehicle id="down_18" type="typeNS" route="down" depart="20" color="1,0,0"/>
    <vehicle id="southright_19" type="typeSE" route="southright" depart="21" />
    <vehicle id="left_20" type="typeWE" route="left" depart="22" />
    <vehicle id="southright_21" type="typeSE" route="southright" depart="25" />
    <vehicle id="down_22" type="typeNS" route="down" depart="25" color="1,0,0"/>
    <vehicle id="left_23" type="typeWE" route="left" depart="26" />
    <vehicle id="down_24" type="typeNS" route="down" depart="26" color="1,0,0"/>
    <vehicle id="right_25" type="typeWE" route="right" depart="27" />
</routes>
