<?xml version="1.0" encoding="UTF-8"?>

<!-- generated on Sun Aug 22 23:04:28 2021 by Eclipse SUMO netgenerate Version 1.6.0
<configuration xmlns:xsi="http://www.w3.org/2001/XMLSchema-instance" xsi:noNamespaceSchemaLocation="http://sumo.dlr.de/xsd/netgenerateConfiguration.xsd">

    <grid_network>
        <grid value="true"/>
        <grid.number value="3"/>
        <grid.length value="100"/>
    </grid_network>

    <output>
        <output-file value="grid.net.xml"/>
    </output>

    <building_defaults>
        <default.lanenumber value="3"/>
        <default-junction-type value="traffic_light"/>
    </building_defaults>

    <junctions>
        <no-turnarounds value="true"/>
    </junctions>

</configuration>
-->

<net version="1.6" junctionCornerDetail="5" limitTurnSpeed="5.50" xmlns:xsi="http://www.w3.org/2001/XMLSchema-instance" xsi:noNamespaceSchemaLocation="http://sumo.dlr.de/xsd/net_file.xsd">

    <location netOffset="0.00,0.00" convBoundary="0.00,0.00,200.00,200.00" origBoundary="0.00,0.00,200.00,200.00" projParameter="!"/>

    <edge id=":A0_0" function="internal">
        <lane id=":A0_0_0" index="0" speed="11.12" length="28.38" shape="-8.00,9.60 -6.90,1.90 -3.60,-3.60 1.90,-6.90 9.60,-8.00"/>
    </edge>
    <edge id=":A0_1" function="internal">
        <lane id=":A0_1_0" index="0" speed="10.10" length="23.22" shape="-4.80,9.60 -3.90,3.30 -1.20,-1.20 3.30,-3.90 9.60,-4.80"/>
    </edge>
    <edge id=":A0_2" function="internal">
        <lane id=":A0_2_0" index="0" speed="8.96" length="18.06" shape="-1.60,9.60 -0.90,4.70 1.20,1.20 4.70,-0.90 9.60,-1.60"/>
    </edge>
    <edge id=":A0_3" function="internal">
        <lane id=":A0_3_0" index="0" speed="3.90" length="2.58" shape="9.60,8.00 8.90,8.10 8.40,8.40 8.10,8.90 8.00,9.60"/>
    </edge>
    <edge id=":A0_4" function="internal">
        <lane id=":A0_4_0" index="0" speed="6.08" length="7.74" shape="9.60,4.80 7.50,5.10 6.00,6.00 5.10,7.50 4.80,9.60"/>
    </edge>
    <edge id=":A0_5" function="internal">
        <lane id=":A0_5_0" index="0" speed="7.66" length="12.90" shape="9.60,1.60 6.10,2.10 3.60,3.60 2.10,6.10 1.60,9.60"/>
    </edge>
    <edge id=":A1_0" function="internal">
        <lane id=":A1_0_0" index="0" speed="13.89" length="27.20" shape="-8.00,113.60 -8.00,86.40"/>
        <lane id=":A1_0_1" index="1" speed="13.89" length="27.20" shape="-4.80,113.60 -4.80,86.40"/>
        <lane id=":A1_0_2" index="2" speed="13.89" length="27.20" shape="-1.60,113.60 -1.60,86.40"/>
    </edge>
    <edge id=":A1_3" function="internal">
        <lane id=":A1_3_0" index="0" speed="10.88" length="9.57" shape="-1.60,113.60 -0.65,105.55 -0.00,104.24"/>
    </edge>
    <edge id=":A1_4" function="internal">
        <lane id=":A1_4_0" index="0" speed="10.36" length="7.98" shape="-1.60,113.60 -0.65,106.95 -0.00,105.87"/>
    </edge>
    <edge id=":A1_13" function="internal">
        <lane id=":A1_13_0" index="0" speed="10.88" length="17.57" shape="-0.00,104.24 2.20,99.80 6.95,96.35 13.60,95.20"/>
    </edge>
    <edge id=":A1_14" function="internal">
        <lane id=":A1_14_0" index="0" speed="10.36" length="16.53" shape="-0.00,105.87 2.20,102.20 6.95,99.35 13.60,98.40"/>
    </edge>
    <edge id=":A1_5" function="internal">
        <lane id=":A1_5_0" index="0" speed="6.51" length="9.03" shape="13.60,108.00 11.15,108.35 9.40,109.40 8.35,111.15 8.00,113.60"/>
    </edge>
    <edge id=":A1_6" function="internal">
        <lane id=":A1_6_0" index="0" speed="8.00" length="14.19" shape="13.60,104.80 9.75,105.35 7.00,107.00 5.35,109.75 4.80,113.60"/>
    </edge>
    <edge id=":A1_7" function="internal">
        <lane id=":A1_7_0" index="0" speed="10.88" length="27.14" shape="13.60,101.60 5.55,100.65 -0.20,97.80 -3.65,93.05 -4.80,86.40"/>
    </edge>
    <edge id=":A1_8" function="internal">
        <lane id=":A1_8_0" index="0" speed="10.36" length="24.51" shape="13.60,101.60 6.95,100.65 2.20,97.80 -0.65,93.05 -1.60,86.40"/>
    </edge>
    <edge id=":A1_9" function="internal">
        <lane id=":A1_9_0" index="0" speed="6.51" length="9.03" shape="8.00,86.40 8.35,88.85 9.40,90.60 11.15,91.65 13.60,92.00"/>
    </edge>
    <edge id=":A1_10" function="internal">
        <lane id=":A1_10_0" index="0" speed="13.89" length="27.20" shape="8.00,86.40 8.00,113.60"/>
        <lane id=":A1_10_1" index="1" speed="13.89" length="27.20" shape="4.80,86.40 4.80,113.60"/>
        <lane id=":A1_10_2" index="2" speed="13.89" length="27.20" shape="1.60,86.40 1.60,113.60"/>
    </edge>
    <edge id=":A2_0" function="internal">
        <lane id=":A2_0_0" index="0" speed="11.12" length="28.38" shape="9.60,208.00 1.90,206.90 -3.60,203.60 -6.90,198.10 -8.00,190.40"/>
    </edge>
    <edge id=":A2_1" function="internal">
        <lane id=":A2_1_0" index="0" speed="10.10" length="23.22" shape="9.60,204.80 3.30,203.90 -1.20,201.20 -3.90,196.70 -4.80,190.40"/>
    </edge>
    <edge id=":A2_2" function="internal">
        <lane id=":A2_2_0" index="0" speed="8.96" length="18.06" shape="9.60,201.60 4.70,200.90 1.20,198.80 -0.90,195.30 -1.60,190.40"/>
    </edge>
    <edge id=":A2_3" function="internal">
        <lane id=":A2_3_0" index="0" speed="3.90" length="2.58" shape="8.00,190.40 8.10,191.10 8.40,191.60 8.90,191.90 9.60,192.00"/>
    </edge>
    <edge id=":A2_4" function="internal">
        <lane id=":A2_4_0" index="0" speed="6.08" length="7.74" shape="4.80,190.40 5.10,192.50 6.00,194.00 7.50,194.90 9.60,195.20"/>
    </edge>
    <edge id=":A2_5" function="internal">
        <lane id=":A2_5_0" index="0" speed="7.66" length="12.90" shape="1.60,190.40 2.10,193.90 3.60,196.40 6.10,197.90 9.60,198.40"/>
    </edge>
    <edge id=":B0_0" function="internal">
        <lane id=":B0_0_0" index="0" speed="6.51" length="9.03" shape="92.00,13.60 91.65,11.15 90.60,9.40 88.85,8.35 86.40,8.00"/>
    </edge>
    <edge id=":B0_1" function="internal">
        <lane id=":B0_1_0" index="0" speed="8.00" length="14.19" shape="95.20,13.60 94.65,9.75 93.00,7.00 90.25,5.35 86.40,4.80"/>
    </edge>
    <edge id=":B0_2" function="internal">
        <lane id=":B0_2_0" index="0" speed="10.88" length="27.14" shape="98.40,13.60 99.35,5.55 102.20,-0.20 106.95,-3.65 113.60,-4.80"/>
    </edge>
    <edge id=":B0_3" function="internal">
        <lane id=":B0_3_0" index="0" speed="10.36" length="24.51" shape="98.40,13.60 99.35,6.95 102.20,2.20 106.95,-0.65 113.60,-1.60"/>
    </edge>
    <edge id=":B0_4" function="internal">
        <lane id=":B0_4_0" index="0" speed="6.51" length="9.03" shape="113.60,8.00 111.15,8.35 109.40,9.40 108.35,11.15 108.00,13.60"/>
    </edge>
    <edge id=":B0_5" function="internal">
        <lane id=":B0_5_0" index="0" speed="13.89" length="27.20" shape="113.60,8.00 86.40,8.00"/>
        <lane id=":B0_5_1" index="1" speed="13.89" length="27.20" shape="113.60,4.80 86.40,4.80"/>
        <lane id=":B0_5_2" index="2" speed="13.89" length="27.20" shape="113.60,1.60 86.40,1.60"/>
    </edge>
    <edge id=":B0_8" function="internal">
        <lane id=":B0_8_0" index="0" speed="13.89" length="27.20" shape="86.40,-8.00 113.60,-8.00"/>
        <lane id=":B0_8_1" index="1" speed="13.89" length="27.20" shape="86.40,-4.80 113.60,-4.80"/>
        <lane id=":B0_8_2" index="2" speed="13.89" length="27.20" shape="86.40,-1.60 113.60,-1.60"/>
    </edge>
    <edge id=":B0_11" function="internal">
        <lane id=":B0_11_0" index="0" speed="10.88" length="9.57" shape="86.40,-1.60 94.45,-0.65 95.76,-0.00"/>
    </edge>
    <edge id=":B0_12" function="internal">
        <lane id=":B0_12_0" index="0" speed="10.36" length="7.98" shape="86.40,-1.60 93.05,-0.65 94.13,-0.00"/>
    </edge>
    <edge id=":B0_13" function="internal">
        <lane id=":B0_13_0" index="0" speed="10.88" length="17.57" shape="95.76,-0.00 100.20,2.20 103.65,6.95 104.80,13.60"/>
    </edge>
    <edge id=":B0_14" function="internal">
        <lane id=":B0_14_0" index="0" speed="10.36" length="16.53" shape="94.13,-0.00 97.80,2.20 100.65,6.95 101.60,13.60"/>
    </edge>
    <edge id=":B1_0" function="internal">
        <lane id=":B1_0_0" index="0" speed="6.51" length="9.03" shape="92.00,113.60 91.65,111.15 90.60,109.40 88.85,108.35 86.40,108.00"/>
    </edge>
    <edge id=":B1_1" function="internal">
        <lane id=":B1_1_0" index="0" speed="13.89" length="27.20" shape="92.00,113.60 92.00,86.40"/>
        <lane id=":B1_1_1" index="1" speed="13.89" length="27.20" shape="95.20,113.60 95.20,86.40"/>
        <lane id=":B1_1_2" index="2" speed="13.89" length="27.20" shape="98.40,113.60 98.40,86.40"/>
    </edge>
    <edge id=":B1_4" function="internal">
        <lane id=":B1_4_0" index="0" speed="10.36" length="7.98" shape="98.40,113.60 99.35,106.95 100.00,105.87"/>
    </edge>
    <edge id=":B1_20" function="internal">
        <lane id=":B1_20_0" index="0" speed="10.36" length="16.53" shape="100.00,105.87 102.20,102.20 106.95,99.35 113.60,98.40"/>
    </edge>
    <edge id=":B1_5" function="internal">
        <lane id=":B1_5_0" index="0" speed="6.51" length="9.03" shape="113.60,108.00 111.15,108.35 109.40,109.40 108.35,111.15 108.00,113.60"/>
    </edge>
    <edge id=":B1_6" function="internal">
        <lane id=":B1_6_0" index="0" speed="13.89" length="27.20" shape="113.60,108.00 86.40,108.00"/>
        <lane id=":B1_6_1" index="1" speed="13.89" length="27.20" shape="113.60,104.80 86.40,104.80"/>
        <lane id=":B1_6_2" index="2" speed="13.89" length="27.20" shape="113.60,101.60 86.40,101.60"/>
    </edge>
    <edge id=":B1_9" function="internal">
        <lane id=":B1_9_0" index="0" speed="10.36" length="7.98" shape="113.60,101.60 106.95,100.65 105.87,100.00"/>
    </edge>
    <edge id=":B1_21" function="internal">
        <lane id=":B1_21_0" index="0" speed="10.36" length="16.53" shape="105.87,100.00 102.20,97.80 99.35,93.05 98.40,86.40"/>
    </edge>
    <edge id=":B1_10" function="internal">
        <lane id=":B1_10_0" index="0" speed="6.51" length="9.03" shape="108.00,86.40 108.35,88.85 109.40,90.60 111.15,91.65 113.60,92.00"/>
    </edge>
    <edge id=":B1_11" function="internal">
        <lane id=":B1_11_0" index="0" speed="13.89" length="27.20" shape="108.00,86.40 108.00,113.60"/>
        <lane id=":B1_11_1" index="1" speed="13.89" length="27.20" shape="104.80,86.40 104.80,113.60"/>
        <lane id=":B1_11_2" index="2" speed="13.89" length="27.20" shape="101.60,86.40 101.60,113.60"/>
    </edge>
    <edge id=":B1_14" function="internal">
        <lane id=":B1_14_0" index="0" speed="10.36" length="7.98" shape="101.60,86.40 100.65,93.05 100.00,94.13"/>
    </edge>
    <edge id=":B1_22" function="internal">
        <lane id=":B1_22_0" index="0" speed="10.36" length="16.53" shape="100.00,94.13 97.80,97.80 93.05,100.65 86.40,101.60"/>
    </edge>
    <edge id=":B1_15" function="internal">
        <lane id=":B1_15_0" index="0" speed="6.51" length="9.03" shape="86.40,92.00 88.85,91.65 90.60,90.60 91.65,88.85 92.00,86.40"/>
    </edge>
    <edge id=":B1_16" function="internal">
        <lane id=":B1_16_0" index="0" speed="13.89" length="27.20" shape="86.40,92.00 113.60,92.00"/>
        <lane id=":B1_16_1" index="1" speed="13.89" length="27.20" shape="86.40,95.20 113.60,95.20"/>
        <lane id=":B1_16_2" index="2" speed="13.89" length="27.20" shape="86.40,98.40 113.60,98.40"/>
    </edge>
    <edge id=":B1_19" function="internal">
        <lane id=":B1_19_0" index="0" speed="10.36" length="7.98" shape="86.40,98.40 93.05,99.35 94.13,100.00"/>
    </edge>
    <edge id=":B1_23" function="internal">
        <lane id=":B1_23_0" index="0" speed="10.36" length="16.53" shape="94.13,100.00 97.80,102.20 100.65,106.95 101.60,113.60"/>
    </edge>
    <edge id=":B2_0" function="internal">
        <lane id=":B2_0_0" index="0" speed="13.89" length="27.20" shape="113.60,208.00 86.40,208.00"/>
        <lane id=":B2_0_1" index="1" speed="13.89" length="27.20" shape="113.60,204.80 86.40,204.80"/>
        <lane id=":B2_0_2" index="2" speed="13.89" length="27.20" shape="113.60,201.60 86.40,201.60"/>
    </edge>
    <edge id=":B2_3" function="internal">
        <lane id=":B2_3_0" index="0" speed="10.88" length="9.57" shape="113.60,201.60 105.55,200.65 104.24,200.00"/>
    </edge>
    <edge id=":B2_4" function="internal">
        <lane id=":B2_4_0" index="0" speed="10.36" length="7.98" shape="113.60,201.60 106.95,200.65 105.87,200.00"/>
    </edge>
    <edge id=":B2_13" function="internal">
        <lane id=":B2_13_0" index="0" speed="10.88" length="17.57" shape="104.24,200.00 99.80,197.80 96.35,193.05 95.20,186.40"/>
    </edge>
    <edge id=":B2_14" function="internal">
        <lane id=":B2_14_0" index="0" speed="10.36" length="16.53" shape="105.87,200.00 102.20,197.80 99.35,193.05 98.40,186.40"/>
    </edge>
    <edge id=":B2_5" function="internal">
        <lane id=":B2_5_0" index="0" speed="6.51" length="9.03" shape="108.00,186.40 108.35,188.85 109.40,190.60 111.15,191.65 113.60,192.00"/>
    </edge>
    <edge id=":B2_6" function="internal">
        <lane id=":B2_6_0" index="0" speed="8.00" length="14.19" shape="104.80,186.40 105.35,190.25 107.00,193.00 109.75,194.65 113.60,195.20"/>
    </edge>
    <edge id=":B2_7" function="internal">
        <lane id=":B2_7_0" index="0" speed="10.88" length="27.14" shape="101.60,186.40 100.65,194.45 97.80,200.20 93.05,203.65 86.40,204.80"/>
    </edge>
    <edge id=":B2_8" function="internal">
        <lane id=":B2_8_0" index="0" speed="10.36" length="24.51" shape="101.60,186.40 100.65,193.05 97.80,197.80 93.05,200.65 86.40,201.60"/>
    </edge>
    <edge id=":B2_9" function="internal">
        <lane id=":B2_9_0" index="0" speed="6.51" length="9.03" shape="86.40,192.00 88.85,191.65 90.60,190.60 91.65,188.85 92.00,186.40"/>
    </edge>
    <edge id=":B2_10" function="internal">
        <lane id=":B2_10_0" index="0" speed="13.89" length="27.20" shape="86.40,192.00 113.60,192.00"/>
        <lane id=":B2_10_1" index="1" speed="13.89" length="27.20" shape="86.40,195.20 113.60,195.20"/>
        <lane id=":B2_10_2" index="2" speed="13.89" length="27.20" shape="86.40,198.40 113.60,198.40"/>
    </edge>
    <edge id=":C0_0" function="internal">
        <lane id=":C0_0_0" index="0" speed="3.90" length="2.58" shape="192.00,9.60 191.90,8.90 191.60,8.40 191.10,8.10 190.40,8.00"/>
    </edge>
    <edge id=":C0_1" function="internal">
        <lane id=":C0_1_0" index="0" speed="6.08" length="7.74" shape="195.20,9.60 194.90,7.50 194.00,6.00 192.50,5.10 190.40,4.80"/>
    </edge>
    <edge id=":C0_2" function="internal">
        <lane id=":C0_2_0" index="0" speed="7.66" length="12.90" shape="198.40,9.60 197.90,6.10 196.40,3.60 193.90,2.10 190.40,1.60"/>
    </edge>
    <edge id=":C0_3" function="internal">
        <lane id=":C0_3_0" index="0" speed="11.12" length="28.38" shape="190.40,-8.00 198.10,-6.90 203.60,-3.60 206.90,1.90 208.00,9.60"/>
    </edge>
    <edge id=":C0_4" function="internal">
        <lane id=":C0_4_0" index="0" speed="10.10" length="23.22" shape="190.40,-4.80 196.70,-3.90 201.20,-1.20 203.90,3.30 204.80,9.60"/>
    </edge>
    <edge id=":C0_5" function="internal">
        <lane id=":C0_5_0" index="0" speed="8.96" length="18.06" shape="190.40,-1.60 195.30,-0.90 198.80,1.20 200.90,4.70 201.60,9.60"/>
    </edge>
    <edge id=":C1_0" function="internal">
        <lane id=":C1_0_0" index="0" speed="6.51" length="9.03" shape="192.00,113.60 191.65,111.15 190.60,109.40 188.85,108.35 186.40,108.00"/>
    </edge>
    <edge id=":C1_1" function="internal">
        <lane id=":C1_1_0" index="0" speed="13.89" length="27.20" shape="192.00,113.60 192.00,86.40"/>
        <lane id=":C1_1_1" index="1" speed="13.89" length="27.20" shape="195.20,113.60 195.20,86.40"/>
        <lane id=":C1_1_2" index="2" speed="13.89" length="27.20" shape="198.40,113.60 198.40,86.40"/>
    </edge>
    <edge id=":C1_4" function="internal">
        <lane id=":C1_4_0" index="0" speed="13.89" length="27.20" shape="208.00,86.40 208.00,113.60"/>
        <lane id=":C1_4_1" index="1" speed="13.89" length="27.20" shape="204.80,86.40 204.80,113.60"/>
        <lane id=":C1_4_2" index="2" speed="13.89" length="27.20" shape="201.60,86.40 201.60,113.60"/>
    </edge>
    <edge id=":C1_7" function="internal">
        <lane id=":C1_7_0" index="0" speed="10.88" length="9.57" shape="201.60,86.40 200.65,94.45 200.00,95.76"/>
    </edge>
    <edge id=":C1_8" function="internal">
        <lane id=":C1_8_0" index="0" speed="10.36" length="7.98" shape="201.60,86.40 200.65,93.05 200.00,94.13"/>
    </edge>
    <edge id=":C1_13" function="internal">
        <lane id=":C1_13_0" index="0" speed="10.88" length="17.57" shape="200.00,95.76 197.80,100.20 193.05,103.65 186.40,104.80"/>
    </edge>
    <edge id=":C1_14" function="internal">
        <lane id=":C1_14_0" index="0" speed="10.36" length="16.53" shape="200.00,94.13 197.80,97.80 193.05,100.65 186.40,101.60"/>
    </edge>
    <edge id=":C1_9" function="internal">
        <lane id=":C1_9_0" index="0" speed="6.51" length="9.03" shape="186.40,92.00 188.85,91.65 190.60,90.60 191.65,88.85 192.00,86.40"/>
    </edge>
    <edge id=":C1_10" function="internal">
        <lane id=":C1_10_0" index="0" speed="8.00" length="14.19" shape="186.40,95.20 190.25,94.65 193.00,93.00 194.65,90.25 195.20,86.40"/>
    </edge>
    <edge id=":C1_11" function="internal">
        <lane id=":C1_11_0" index="0" speed="10.88" length="27.14" shape="186.40,98.40 194.45,99.35 200.20,102.20 203.65,106.95 204.80,113.60"/>
    </edge>
    <edge id=":C1_12" function="internal">
        <lane id=":C1_12_0" index="0" speed="10.36" length="24.51" shape="186.40,98.40 193.05,99.35 197.80,102.20 200.65,106.95 201.60,113.60"/>
    </edge>
    <edge id=":C2_0" function="internal">
        <lane id=":C2_0_0" index="0" speed="11.12" length="28.38" shape="208.00,190.40 206.90,198.10 203.60,203.60 198.10,206.90 190.40,208.00"/>
    </edge>
    <edge id=":C2_1" function="internal">
        <lane id=":C2_1_0" index="0" speed="10.10" length="23.22" shape="204.80,190.40 203.90,196.70 201.20,201.20 196.70,203.90 190.40,204.80"/>
    </edge>
    <edge id=":C2_2" function="internal">
        <lane id=":C2_2_0" index="0" speed="8.96" length="18.06" shape="201.60,190.40 200.90,195.30 198.80,198.80 195.30,200.90 190.40,201.60"/>
    </edge>
    <edge id=":C2_3" function="internal">
        <lane id=":C2_3_0" index="0" speed="3.90" length="2.58" shape="190.40,192.00 191.10,191.90 191.60,191.60 191.90,191.10 192.00,190.40"/>
    </edge>
    <edge id=":C2_4" function="internal">
        <lane id=":C2_4_0" index="0" speed="6.08" length="7.74" shape="190.40,195.20 192.50,194.90 194.00,194.00 194.90,192.50 195.20,190.40"/>
    </edge>
    <edge id=":C2_5" function="internal">
        <lane id=":C2_5_0" index="0" speed="7.66" length="12.90" shape="190.40,198.40 193.90,197.90 196.40,196.40 197.90,193.90 198.40,190.40"/>
    </edge>

    <edge id="A0A1" from="A0" to="A1" priority="-1">
        <lane id="A0A1_0" index="0" speed="13.89" length="76.80" shape="8.00,9.60 8.00,86.40"/>
        <lane id="A0A1_1" index="1" speed="13.89" length="76.80" shape="4.80,9.60 4.80,86.40"/>
        <lane id="A0A1_2" index="2" speed="13.89" length="76.80" shape="1.60,9.60 1.60,86.40"/>
    </edge>
    <edge id="A0B0" from="A0" to="B0" priority="-1">
        <lane id="A0B0_0" index="0" speed="13.89" length="76.80" shape="9.60,-8.00 86.40,-8.00"/>
        <lane id="A0B0_1" index="1" speed="13.89" length="76.80" shape="9.60,-4.80 86.40,-4.80"/>
        <lane id="A0B0_2" index="2" speed="13.89" length="76.80" shape="9.60,-1.60 86.40,-1.60"/>
    </edge>
    <edge id="A1A0" from="A1" to="A0" priority="-1">
        <lane id="A1A0_0" index="0" speed="13.89" length="76.80" shape="-8.00,86.40 -8.00,9.60"/>
        <lane id="A1A0_1" index="1" speed="13.89" length="76.80" shape="-4.80,86.40 -4.80,9.60"/>
        <lane id="A1A0_2" index="2" speed="13.89" length="76.80" shape="-1.60,86.40 -1.60,9.60"/>
    </edge>
    <edge id="A1A2" from="A1" to="A2" priority="-1">
        <lane id="A1A2_0" index="0" speed="13.89" length="76.80" shape="8.00,113.60 8.00,190.40"/>
        <lane id="A1A2_1" index="1" speed="13.89" length="76.80" shape="4.80,113.60 4.80,190.40"/>
        <lane id="A1A2_2" index="2" speed="13.89" length="76.80" shape="1.60,113.60 1.60,190.40"/>
    </edge>
    <edge id="A1B1" from="A1" to="B1" priority="-1">
        <lane id="A1B1_0" index="0" speed="13.89" length="72.80" shape="13.60,92.00 86.40,92.00"/>
        <lane id="A1B1_1" index="1" speed="13.89" length="72.80" shape="13.60,95.20 86.40,95.20"/>
        <lane id="A1B1_2" index="2" speed="13.89" length="72.80" shape="13.60,98.40 86.40,98.40"/>
    </edge>
    <edge id="A2A1" from="A2" to="A1" priority="-1">
        <lane id="A2A1_0" index="0" speed="13.89" length="76.80" shape="-8.00,190.40 -8.00,113.60"/>
        <lane id="A2A1_1" index="1" speed="13.89" length="76.80" shape="-4.80,190.40 -4.80,113.60"/>
        <lane id="A2A1_2" index="2" speed="13.89" length="76.80" shape="-1.60,190.40 -1.60,113.60"/>
    </edge>
    <edge id="A2B2" from="A2" to="B2" priority="-1">
        <lane id="A2B2_0" index="0" speed="13.89" length="76.80" shape="9.60,192.00 86.40,192.00"/>
        <lane id="A2B2_1" index="1" speed="13.89" length="76.80" shape="9.60,195.20 86.40,195.20"/>
        <lane id="A2B2_2" index="2" speed="13.89" length="76.80" shape="9.60,198.40 86.40,198.40"/>
    </edge>
    <edge id="B0A0" from="B0" to="A0" priority="-1">
        <lane id="B0A0_0" index="0" speed="13.89" length="76.80" shape="86.40,8.00 9.60,8.00"/>
        <lane id="B0A0_1" index="1" speed="13.89" length="76.80" shape="86.40,4.80 9.60,4.80"/>
        <lane id="B0A0_2" index="2" speed="13.89" length="76.80" shape="86.40,1.60 9.60,1.60"/>
    </edge>
    <edge id="B0B1" from="B0" to="B1" priority="-1">
        <lane id="B0B1_0" index="0" speed="13.89" length="72.80" shape="108.00,13.60 108.00,86.40"/>
        <lane id="B0B1_1" index="1" speed="13.89" length="72.80" shape="104.80,13.60 104.80,86.40"/>
        <lane id="B0B1_2" index="2" speed="13.89" length="72.80" shape="101.60,13.60 101.60,86.40"/>
    </edge>
    <edge id="B0C0" from="B0" to="C0" priority="-1">
        <lane id="B0C0_0" index="0" speed="13.89" length="76.80" shape="113.60,-8.00 190.40,-8.00"/>
        <lane id="B0C0_1" index="1" speed="13.89" length="76.80" shape="113.60,-4.80 190.40,-4.80"/>
        <lane id="B0C0_2" index="2" speed="13.89" length="76.80" shape="113.60,-1.60 190.40,-1.60"/>
    </edge>
    <edge id="B1A1" from="B1" to="A1" priority="-1">
        <lane id="B1A1_0" index="0" speed="13.89" length="72.80" shape="86.40,108.00 13.60,108.00"/>
        <lane id="B1A1_1" index="1" speed="13.89" length="72.80" shape="86.40,104.80 13.60,104.80"/>
        <lane id="B1A1_2" index="2" speed="13.89" length="72.80" shape="86.40,101.60 13.60,101.60"/>
    </edge>
    <edge id="B1B0" from="B1" to="B0" priority="-1">
        <lane id="B1B0_0" index="0" speed="13.89" length="72.80" shape="92.00,86.40 92.00,13.60"/>
        <lane id="B1B0_1" index="1" speed="13.89" length="72.80" shape="95.20,86.40 95.20,13.60"/>
        <lane id="B1B0_2" index="2" speed="13.89" length="72.80" shape="98.40,86.40 98.40,13.60"/>
    </edge>
    <edge id="B1B2" from="B1" to="B2" priority="-1">
        <lane id="B1B2_0" index="0" speed="13.89" length="72.80" shape="108.00,113.60 108.00,186.40"/>
        <lane id="B1B2_1" index="1" speed="13.89" length="72.80" shape="104.80,113.60 104.80,186.40"/>
        <lane id="B1B2_2" index="2" speed="13.89" length="72.80" shape="101.60,113.60 101.60,186.40"/>
    </edge>
    <edge id="B1C1" from="B1" to="C1" priority="-1">
        <lane id="B1C1_0" index="0" speed="13.89" length="72.80" shape="113.60,92.00 186.40,92.00"/>
        <lane id="B1C1_1" index="1" speed="13.89" length="72.80" shape="113.60,95.20 186.40,95.20"/>
        <lane id="B1C1_2" index="2" speed="13.89" length="72.80" shape="113.60,98.40 186.40,98.40"/>
    </edge>
    <edge id="B2A2" from="B2" to="A2" priority="-1">
        <lane id="B2A2_0" index="0" speed="13.89" length="76.80" shape="86.40,208.00 9.60,208.00"/>
        <lane id="B2A2_1" index="1" speed="13.89" length="76.80" shape="86.40,204.80 9.60,204.80"/>
        <lane id="B2A2_2" index="2" speed="13.89" length="76.80" shape="86.40,201.60 9.60,201.60"/>
    </edge>
    <edge id="B2B1" from="B2" to="B1" priority="-1">
        <lane id="B2B1_0" index="0" speed="13.89" length="72.80" shape="92.00,186.40 92.00,113.60"/>
        <lane id="B2B1_1" index="1" speed="13.89" length="72.80" shape="95.20,186.40 95.20,113.60"/>
        <lane id="B2B1_2" index="2" speed="13.89" length="72.80" shape="98.40,186.40 98.40,113.60"/>
    </edge>
    <edge id="B2C2" from="B2" to="C2" priority="-1">
        <lane id="B2C2_0" index="0" speed="13.89" length="76.80" shape="113.60,192.00 190.40,192.00"/>
        <lane id="B2C2_1" index="1" speed="13.89" length="76.80" shape="113.60,195.20 190.40,195.20"/>
        <lane id="B2C2_2" index="2" speed="13.89" length="76.80" shape="113.60,198.40 190.40,198.40"/>
    </edge>
    <edge id="C0B0" from="C0" to="B0" priority="-1">
        <lane id="C0B0_0" index="0" speed="13.89" length="76.80" shape="190.40,8.00 113.60,8.00"/>
        <lane id="C0B0_1" index="1" speed="13.89" length="76.80" shape="190.40,4.80 113.60,4.80"/>
        <lane id="C0B0_2" index="2" speed="13.89" length="76.80" shape="190.40,1.60 113.60,1.60"/>
    </edge>
    <edge id="C0C1" from="C0" to="C1" priority="-1">
        <lane id="C0C1_0" index="0" speed="13.89" length="76.80" shape="208.00,9.60 208.00,86.40"/>
        <lane id="C0C1_1" index="1" speed="13.89" length="76.80" shape="204.80,9.60 204.80,86.40"/>
        <lane id="C0C1_2" index="2" speed="13.89" length="76.80" shape="201.60,9.60 201.60,86.40"/>
    </edge>
    <edge id="C1B1" from="C1" to="B1" priority="-1">
        <lane id="C1B1_0" index="0" speed="13.89" length="72.80" shape="186.40,108.00 113.60,108.00"/>
        <lane id="C1B1_1" index="1" speed="13.89" length="72.80" shape="186.40,104.80 113.60,104.80"/>
        <lane id="C1B1_2" index="2" speed="13.89" length="72.80" shape="186.40,101.60 113.60,101.60"/>
    </edge>
    <edge id="C1C0" from="C1" to="C0" priority="-1">
        <lane id="C1C0_0" index="0" speed="13.89" length="76.80" shape="192.00,86.40 192.00,9.60"/>
        <lane id="C1C0_1" index="1" speed="13.89" length="76.80" shape="195.20,86.40 195.20,9.60"/>
        <lane id="C1C0_2" index="2" speed="13.89" length="76.80" shape="198.40,86.40 198.40,9.60"/>
    </edge>
    <edge id="C1C2" from="C1" to="C2" priority="-1">
        <lane id="C1C2_0" index="0" speed="13.89" length="76.80" shape="208.00,113.60 208.00,190.40"/>
        <lane id="C1C2_1" index="1" speed="13.89" length="76.80" shape="204.80,113.60 204.80,190.40"/>
        <lane id="C1C2_2" index="2" speed="13.89" length="76.80" shape="201.60,113.60 201.60,190.40"/>
    </edge>
    <edge id="C2B2" from="C2" to="B2" priority="-1">
        <lane id="C2B2_0" index="0" speed="13.89" length="76.80" shape="190.40,208.00 113.60,208.00"/>
        <lane id="C2B2_1" index="1" speed="13.89" length="76.80" shape="190.40,204.80 113.60,204.80"/>
        <lane id="C2B2_2" index="2" speed="13.89" length="76.80" shape="190.40,201.60 113.60,201.60"/>
    </edge>
    <edge id="C2C1" from="C2" to="C1" priority="-1">
        <lane id="C2C1_0" index="0" speed="13.89" length="76.80" shape="192.00,190.40 192.00,113.60"/>
        <lane id="C2C1_1" index="1" speed="13.89" length="76.80" shape="195.20,190.40 195.20,113.60"/>
        <lane id="C2C1_2" index="2" speed="13.89" length="76.80" shape="198.40,190.40 198.40,113.60"/>
    </edge>

    <tlLogic id="A0" type="static" programID="0" offset="0">
        <phase duration="42" state="GGGGGG"/>
        <phase duration="3"  state="yyyyyy"/>
        <phase duration="42" state="GGGGGG"/>
        <phase duration="3"  state="yyyyyy"/>
    </tlLogic>
    <tlLogic id="A1" type="static" programID="0" offset="0">
        <phase duration="42" state="GGGggrrrrGGGG"/>
        <phase duration="3"  state="yyyyyrrrryyyy"/>
        <phase duration="42" state="rrrrrGGGGGrrr"/>
        <phase duration="3"  state="rrrrryyyyyrrr"/>
    </tlLogic>
    <tlLogic id="A2" type="static" programID="0" offset="0">
        <phase duration="42" state="GGGGGG"/>
        <phase duration="3"  state="yyyyyy"/>
        <phase duration="42" state="GGGGGG"/>
        <phase duration="3"  state="yyyyyy"/>
    </tlLogic>
    <tlLogic id="B0" type="static" programID="0" offset="0">
        <phase duration="42" state="rrrrGGGGGGGgg"/>
        <phase duration="3"  state="rrrryyyyyyyyy"/>
        <phase duration="42" state="GGGGGrrrrrrrr"/>
        <phase duration="3"  state="yyyyyrrrrrrrr"/>
    </tlLogic>
    <tlLogic id="B1" type="static" programID="0" offset="0">
        <phase duration="42" state="GGGGgrrrrrGGGGgrrrrr"/>
        <phase duration="3"  state="yyyyyrrrrryyyyyrrrrr"/>
        <phase duration="42" state="rrrrrGGGGgrrrrrGGGGg"/>
        <phase duration="3"  state="rrrrryyyyyrrrrryyyyy"/>
    </tlLogic>
    <tlLogic id="B2" type="static" programID="0" offset="0">
        <phase duration="42" state="GGGggrrrrGGGG"/>
        <phase duration="3"  state="yyyyyrrrryyyy"/>
        <phase duration="42" state="rrrrrGGGGGrrr"/>
        <phase duration="3"  state="rrrrryyyyyrrr"/>
    </tlLogic>
    <tlLogic id="C0" type="static" programID="0" offset="0">
        <phase duration="42" state="GGGGGG"/>
        <phase duration="3"  state="yyyyyy"/>
        <phase duration="42" state="GGGGGG"/>
        <phase duration="3"  state="yyyyyy"/>
    </tlLogic>
    <tlLogic id="C1" type="static" programID="0" offset="0">
        <phase duration="42" state="GGGGGGGggrrrr"/>
        <phase duration="3"  state="yyyyyyyyyrrrr"/>
        <phase duration="42" state="GrrrrrrrrGGGG"/>
        <phase duration="3"  state="yrrrrrrrryyyy"/>
    </tlLogic>
    <tlLogic id="C2" type="static" programID="0" offset="0">
        <phase duration="42" state="GGGGGG"/>
        <phase duration="3"  state="yyyyyy"/>