<?xml version="1.0" encoding="UTF-8"?>

<!-- generated on 08/30/21 16:05:54 by Eclipse SUMO netgenerate Version 1.8.0
<configuration xmlns:xsi="http://www.w3.org/2001/XMLSchema-instance" xsi:noNamespaceSchemaLocation="http://sumo.dlr.de/xsd/netgenerateConfiguration.xsd">

    <grid_network>
        <grid value="true"/>
        <grid.number value="3"/>
        <grid.length value="150"/>
    </grid_network>

    <output>
        <output-file value="grid-3x3.net.xml"/>
    </output>

    <building_defaults>
        <default.lanenumber value="2"/>
        <default-junction-type value="traffic_light"/>
    </building_defaults>

    <junctions>
        <no-turnarounds value="true"/>
    </junctions>

</configuration>
-->

<net version="1.6" junctionCornerDetail="5" limitTurnSpeed="5.50" xmlns:xsi="http://www.w3.org/2001/XMLSchema-instance" xsi:noNamespaceSchemaLocation="http://sumo.dlr.de/xsd/net_file.xsd">

    <location netOffset="0.00,0.00" convBoundary="0.00,0.00,300.00,300.00" origBoundary="0.00,0.00,300.00,300.00" projParameter="!"/>

    <edge id=":A0_0" function="internal">
        <lane id=":A0_0_0" index="0" speed="8.96" length="18.06" shape="-4.80,6.40 -4.10,1.50 -2.00,-2.00 1.50,-4.10 6.40,-4.80"/>
    </edge>
    <edge id=":A0_1" function="internal">
        <lane id=":A0_1_0" index="0" speed="7.66" length="12.90" shape="-1.60,6.40 -1.10,2.90 0.40,0.40 2.90,-1.10 6.40,-1.60"/>
    </edge>
    <edge id=":A0_2" function="internal">
        <lane id=":A0_2_0" index="0" speed="3.90" length="2.58" shape="6.40,4.80 5.70,4.90 5.20,5.20 4.90,5.70 4.80,6.40"/>
    </edge>
    <edge id=":A0_3" function="internal">
        <lane id=":A0_3_0" index="0" speed="6.08" length="7.74" shape="6.40,1.60 4.30,1.90 2.80,2.80 1.90,4.30 1.60,6.40"/>
    </edge>
    <edge id=":A1_0" function="internal">
        <lane id=":A1_0_0" index="0" speed="13.89" length="20.80" shape="-4.80,160.40 -4.80,139.60"/>
        <lane id=":A1_0_1" index="1" speed="13.89" length="20.80" shape="-1.60,160.40 -1.60,139.60"/>
    </edge>
    <edge id=":A1_2" function="internal">
        <lane id=":A1_2_0" index="0" speed="9.26" length="6.96" shape="-1.60,160.40 -0.85,155.15 -0.00,153.73"/>
    </edge>
    <edge id=":A1_9" function="internal">
        <lane id=":A1_9_0" index="0" speed="9.26" length="12.40" shape="-0.00,153.73 1.40,151.40 5.15,149.15 10.40,148.40"/>
    </edge>
    <edge id=":A1_3" function="internal">
        <lane id=":A1_3_0" index="0" speed="6.51" length="9.03" shape="10.40,154.80 7.95,155.15 6.20,156.20 5.15,157.95 4.80,160.40"/>
    </edge>
    <edge id=":A1_4" function="internal">
        <lane id=":A1_4_0" index="0" speed="8.00" length="14.19" shape="10.40,151.60 6.55,152.15 3.80,153.80 2.15,156.55 1.60,160.40"/>
    </edge>
    <edge id=":A1_5" function="internal">
        <lane id=":A1_5_0" index="0" speed="9.26" length="19.35" shape="10.40,151.60 5.15,150.85 1.40,148.60 -0.85,144.85 -1.60,139.60"/>
    </edge>
    <edge id=":A1_6" function="internal">
        <lane id=":A1_6_0" index="0" speed="6.51" length="9.03" shape="4.80,139.60 5.15,142.05 6.20,143.80 7.95,144.85 10.40,145.20"/>
    </edge>
    <edge id=":A1_7" function="internal">
        <lane id=":A1_7_0" index="0" speed="13.89" length="20.80" shape="4.80,139.60 4.80,160.40"/>
        <lane id=":A1_7_1" index="1" speed="13.89" length="20.80" shape="1.60,139.60 1.60,160.40"/>
    </edge>
    <edge id=":A2_0" function="internal">
        <lane id=":A2_0_0" index="0" speed="8.96" length="18.06" shape="6.40,304.80 1.50,304.10 -2.00,302.00 -4.10,298.50 -4.80,293.60"/>
    </edge>
    <edge id=":A2_1" function="internal">
        <lane id=":A2_1_0" index="0" speed="7.66" length="12.90" shape="6.40,301.60 2.90,301.10 0.40,299.60 -1.10,297.10 -1.60,293.60"/>
    </edge>
    <edge id=":A2_2" function="internal">
        <lane id=":A2_2_0" index="0" speed="3.90" length="2.58" shape="4.80,293.60 4.90,294.30 5.20,294.80 5.70,295.10 6.40,295.20"/>
    </edge>
    <edge id=":A2_3" function="internal">
        <lane id=":A2_3_0" index="0" speed="6.08" length="7.74" shape="1.60,293.60 1.90,295.70 2.80,297.20 4.30,298.10 6.40,298.40"/>
    </edge>
    <edge id=":B0_0" function="internal">
        <lane id=":B0_0_0" index="0" speed="6.51" length="9.03" shape="145.20,10.40 144.85,7.95 143.80,6.20 142.05,5.15 139.60,4.80"/>
    </edge>
    <edge id=":B0_1" function="internal">
        <lane id=":B0_1_0" index="0" speed="8.00" length="14.19" shape="148.40,10.40 147.85,6.55 146.20,3.80 143.45,2.15 139.60,1.60"/>
    </edge>
    <edge id=":B0_2" function="internal">
        <lane id=":B0_2_0" index="0" speed="9.26" length="19.35" shape="148.40,10.40 149.15,5.15 151.40,1.40 155.15,-0.85 160.40,-1.60"/>
    </edge>
    <edge id=":B0_3" function="internal">
        <lane id=":B0_3_0" index="0" speed="6.51" length="9.03" shape="160.40,4.80 157.95,5.15 156.20,6.20 155.15,7.95 154.80,10.40"/>
    </edge>
    <edge id=":B0_4" function="internal">
        <lane id=":B0_4_0" index="0" speed="13.89" length="20.80" shape="160.40,4.80 139.60,4.80"/>
        <lane id=":B0_4_1" index="1" speed="13.89" length="20.80" shape="160.40,1.60 139.60,1.60"/>
    </edge>
    <edge id=":B0_6" function="internal">
        <lane id=":B0_6_0" index="0" speed="13.89" length="20.80" shape="139.60,-4.80 160.40,-4.80"/>
        <lane id=":B0_6_1" index="1" speed="13.89" length="20.80" shape="139.60,-1.60 160.40,-1.60"/>
    </edge>
    <edge id=":B0_8" function="internal">
        <lane id=":B0_8_0" index="0" speed="9.26" length="6.96" shape="139.60,-1.60 144.85,-0.85 146.27,-0.00"/>
    </edge>
    <edge id=":B0_9" function="internal">
        <lane id=":B0_9_0" index="0" speed="9.26" length="12.40" shape="146.27,-0.00 148.60,1.40 150.85,5.15 151.60,10.40"/>
    </edge>
    <edge id=":B1_0" function="internal">
        <lane id=":B1_0_0" index="0" speed="6.51" length="9.03" shape="145.20,160.40 144.85,157.95 143.80,156.20 142.05,155.15 139.60,154.80"/>
    </edge>
    <edge id=":B1_1" function="internal">
        <lane id=":B1_1_0" index="0" speed="13.89" length="20.80" shape="145.20,160.40 145.20,139.60"/>
        <lane id=":B1_1_1" index="1" speed="13.89" length="20.80" shape="148.40,160.40 148.40,139.60"/>
    </edge>
    <edge id=":B1_3" function="internal">
        <lane id=":B1_3_0" index="0" speed="9.26" length="6.96" shape="148.40,160.40 149.15,155.15 150.00,153.73"/>
    </edge>
    <edge id=":B1_16" function="internal">
        <lane id=":B1_16_0" index="0" speed="9.26" length="12.40" shape="150.00,153.73 151.40,151.40 155.15,149.15 160.40,148.40"/>
    </edge>
    <edge id=":B1_4" function="internal">
        <lane id=":B1_4_0" index="0" speed="6.51" length="9.03" shape="160.40,154.80 157.95,155.15 156.20,156.20 155.15,157.95 154.80,160.40"/>
    </edge>
    <edge id=":B1_5" function="internal">
        <lane id=":B1_5_0" index="0" speed="13.89" length="20.80" shape="160.40,154.80 139.60,154.80"/>
        <lane id=":B1_5_1" index="1" speed="13.89" length="20.80" shape="160.40,151.60 139.60,151.60"/>
    </edge>
    <edge id=":B1_7" function="internal">
        <lane id=":B1_7_0" index="0" speed="9.26" length="6.96" shape="160.40,151.60 155.15,150.85 153.73,150.00"/>
    </edge>
    <edge id=":B1_17" function="internal">
        <lane id=":B1_17_0" index="0" speed="9.26" length="12.40" shape="153.73,150.00 151.40,148.60 149.15,144.85 148.40,139.60"/>
    </edge>
    <edge id=":B1_8" function="internal">
        <lane id=":B1_8_0" index="0" speed="6.51" length="9.03" shape="154.80,139.60 155.15,142.05 156.20,143.80 157.95,144.85 160.40,145.20"/>
    </edge>
    <edge id=":B1_9" function="internal">
        <lane id=":B1_9_0" index="0" speed="13.89" length="20.80" shape="154.80,139.60 154.80,160.40"/>
        <lane id=":B1_9_1" index="1" speed="13.89" length="20.80" shape="151.60,139.60 151.60,160.40"/>
    </edge>
    <edge id=":B1_11" function="internal">
        <lane id=":B1_11_0" index="0" speed="9.26" length="6.96" shape="151.60,139.60 150.85,144.85 150.00,146.27"/>
    </edge>
    <edge id=":B1_18" function="internal">
        <lane id=":B1_18_0" index="0" speed="9.26" length="12.40" shape="150.00,146.27 148.60,148.60 144.85,150.85 139.60,151.60"/>
    </edge>
    <edge id=":B1_12" function="internal">
        <lane id=":B1_12_0" index="0" speed="6.51" length="9.03" shape="139.60,145.20 142.05,144.85 143.80,143.80 144.85,142.05 145.20,139.60"/>
    </edge>
    <edge id=":B1_13" function="internal">
        <lane id=":B1_13_0" index="0" speed="13.89" length="20.80" shape="139.60,145.20 160.40,145.20"/>
        <lane id=":B1_13_1" index="1" speed="13.89" length="20.80" shape="139.60,148.40 160.40,148.40"/>
    </edge>
    <edge id=":B1_15" function="internal">
        <lane id=":B1_15_0" index="0" speed="9.26" length="6.96" shape="139.60,148.40 144.85,149.15 146.27,150.00"/>
    </edge>
    <edge id=":B1_19" function="internal">
        <lane id=":B1_19_0" index="0" speed="9.26" length="12.40" shape="146.27,150.00 148.60,151.40 150.85,155.15 151.60,160.40"/>
    </edge>
    <edge id=":B2_0" function="internal">
        <lane id=":B2_0_0" index="0" speed="13.89" length="20.80" shape="160.40,304.80 139.60,304.80"/>
        <lane id=":B2_0_1" index="1" speed="13.89" length="20.80" shape="160.40,301.60 139.60,301.60"/>
    </edge>
    <edge id=":B2_2" function="internal">
        <lane id=":B2_2_0" index="0" speed="9.26" length="6.96" shape="160.40,301.60 155.15,300.85 153.73,300.00"/>
    </edge>
    <edge id=":B2_9" function="internal">
        <lane id=":B2_9_0" index="0" speed="9.26" length="12.40" shape="153.73,300.00 151.40,298.60 149.15,294.85 148.40,289.60"/>
    </edge>
    <edge id=":B2_3" function="internal">
        <lane id=":B2_3_0" index="0" speed="6.51" length="9.03" shape="154.80,289.60 155.15,292.05 156.20,293.80 157.95,294.85 160.40,295.20"/>
    </edge>
    <edge id=":B2_4" function="internal">
        <lane id=":B2_4_0" index="0" speed="8.00" length="14.19" shape="151.60,289.60 152.15,293.45 153.80,296.20 156.55,297.85 160.40,298.40"/>
    </edge>
    <edge id=":B2_5" function="internal">
        <lane id=":B2_5_0" index="0" speed="9.26" length="19.35" shape="151.60,289.60 150.85,294.85 148.60,298.60 144.85,300.85 139.60,301.60"/>
    </edge>
    <edge id=":B2_6" function="internal">
        <lane id=":B2_6_0" index="0" speed="6.51" length="9.03" shape="139.60,295.20 142.05,294.85 143.80,293.80 144.85,292.05 145.20,289.60"/>
    </edge>
    <edge id=":B2_7" function="internal">
        <lane id=":B2_7_0" index="0" speed="13.89" length="20.80" shape="139.60,295.20 160.40,295.20"/>
        <lane id=":B2_7_1" index="1" speed="13.89" length="20.80" shape="139.60,298.40 160.40,298.40"/>
    </edge>
    <edge id=":C0_0" function="internal">
        <lane id=":C0_0_0" index="0" speed="3.90" length="2.58" shape="295.20,6.40 295.10,5.70 294.80,5.20 294.30,4.90 293.60,4.80"/>
    </edge>
    <edge id=":C0_1" function="internal">
        <lane id=":C0_1_0" index="0" speed="6.08" length="7.74" shape="298.40,6.40 298.10,4.30 297.20,2.80 295.70,1.90 293.60,1.60"/>
    </edge>
    <edge id=":C0_2" function="internal">
        <lane id=":C0_2_0" index="0" speed="8.96" length="18.06" shape="293.60,-4.80 298.50,-4.10 302.00,-2.00 304.10,1.50 304.80,6.40"/>
    </edge>
    <edge id=":C0_3" function="internal">
        <lane id=":C0_3_0" index="0" speed="7.66" length="12.90" shape="293.60,-1.60 297.10,-1.10 299.60,0.40 301.10,2.90 301.60,6.40"/>
    </edge>
    <edge id=":C1_0" function="internal">
        <lane id=":C1_0_0" index="0" speed="6.51" length="9.03" shape="295.20,160.40 294.85,157.95 293.80,156.20 292.05,155.15 289.60,154.80"/>
    </edge>
    <edge id=":C1_1" function="internal">
        <lane id=":C1_1_0" index="0" speed="13.89" length="20.80" shape="295.20,160.40 295.20,139.60"/>
        <lane id=":C1_1_1" index="1" speed="13.89" length="20.80" shape="298.40,160.40 298.40,139.60"/>
    </edge>
    <edge id=":C1_3" function="internal">
        <lane id=":C1_3_0" index="0" speed="13.89" length="20.80" shape="304.80,139.60 304.80,160.40"/>
        <lane id=":C1_3_1" index="1" speed="13.89" length="20.80" shape="301.60,139.60 301.60,160.40"/>
    </edge>
    <edge id=":C1_5" function="internal">
        <lane id=":C1_5_0" index="0" speed="9.26" length="6.96" shape="301.60,139.60 300.85,144.85 300.00,146.27"/>
    </edge>
    <edge id=":C1_9" function="internal">
        <lane id=":C1_9_0" index="0" speed="9.26" length="12.40" shape="300.00,146.27 298.60,148.60 294.85,150.85 289.60,151.60"/>
    </edge>
    <edge id=":C1_6" function="internal">
        <lane id=":C1_6_0" index="0" speed="6.51" length="9.03" shape="289.60,145.20 292.05,144.85 293.80,143.80 294.85,142.05 295.20,139.60"/>
    </edge>
    <edge id=":C1_7" function="internal">
        <lane id=":C1_7_0" index="0" speed="8.00" length="14.19" shape="289.60,148.40 293.45,147.85 296.20,146.20 297.85,143.45 298.40,139.60"/>
    </edge>
    <edge id=":C1_8" function="internal">
        <lane id=":C1_8_0" index="0" speed="9.26" length="19.35" shape="289.60,148.40 294.85,149.15 298.60,151.40 300.85,155.15 301.60,160.40"/>
    </edge>
    <edge id=":C2_0" function="internal">
        <lane id=":C2_0_0" index="0" speed="8.96" length="18.06" shape="304.80,293.60 304.10,298.50 302.00,302.00 298.50,304.10 293.60,304.80"/>
    </edge>
    <edge id=":C2_1" function="internal">
        <lane id=":C2_1_0" index="0" speed="7.66" length="12.90" shape="301.60,293.60 301.10,297.10 299.60,299.60 297.10,301.10 293.60,301.60"/>
    </edge>
    <edge id=":C2_2" function="internal">
        <lane id=":C2_2_0" index="0" speed="3.90" length="2.58" shape="293.60,295.20 294.30,295.10 294.80,294.80 295.10,294.30 295.20,293.60"/>
    </edge>
    <edge id=":C2_3" function="internal">
        <lane id=":C2_3_0" index="0" speed="6.08" length="7.74" shape="293.60,298.40 295.70,298.10 297.20,297.20 298.10,295.70 298.40,293.60"/>
    </edge>

    <edge id="A0A1" from="A0" to="A1" priority="-1">
        <lane id="A0A1_0" index="0" speed="13.89" length="133.20" shape="4.80,6.40 4.80,139.60"/>
        <lane id="A0A1_1" index="1" speed="13.89" length="133.20" shape="1.60,6.40 1.60,139.60"/>
    </edge>
    <edge id="A0B0" from="A0" to="B0" priority="-1">
        <lane id="A0B0_0" index="0" speed="13.89" length="133.20" shape="6.40,-4.80 139.60,-4.80"/>
        <lane id="A0B0_1" index="1" speed="13.89" length="133.20" shape="6.40,-1.60 139.60,-1.60"/>
    </edge>
    <edge id="A1A0" from="A1" to="A0" priority="-1">
        <lane id="A1A0_0" index="0" speed="13.89" length="133.20" shape="-4.80,139.60 -4.80,6.40"/>
        <lane id="A1A0_1" index="1" speed="13.89" length="133.20" shape="-1.60,139.60 -1.60,6.40"/>
    </edge>
    <edge id="A1A2" from="A1" to="A2" priority="-1">
        <lane id="A1A2_0" index="0" speed="13.89" length="133.20" shape="4.80,160.40 4.80,293.60"/>
        <lane id="A1A2_1" index="1" speed="13.89" length="133.20" shape="1.60,160.40 1.60,293.60"/>
    </edge>
    <edge id="A1B1" from="A1" to="B1" priority="-1">
        <lane id="A1B1_0" index="0" speed="13.89" length="129.20" shape="10.40,145.20 139.60,145.20"/>
        <lane id="A1B1_1" index="1" speed="13.89" length="129.20" shape="10.40,148.40 139.60,148.40"/>
    </edge>
    <edge id="A2A1" from="A2" to="A1" priority="-1">
        <lane id="A2A1_0" index="0" speed="13.89" length="133.20" shape="-4.80,293.60 -4.80,160.40"/>
        <lane id="A2A1_1" index="1" speed="13.89" length="133.20" shape="-1.60,293.60 -1.60,160.40"/>
    </edge>
    <edge id="A2B2" from="A2" to="B2" priority="-1">
        <lane id="A2B2_0" index="0" speed="13.89" length="133.20" shape="6.40,295.20 139.60,295.20"/>
        <lane id="A2B2_1" index="1" speed="13.89" length="133.20" shape="6.40,298.40 139.60,298.40"/>
    </edge>
    <edge id="B0A0" from="B0" to="A0" priority="-1">
        <lane id="B0A0_0" index="0" speed="13.89" length="133.20" shape="139.60,4.80 6.40,4.80"/>
        <lane id="B0A0_1" index="1" speed="13.89" length="133.20" shape="139.60,1.60 6.40,1.60"/>
    </edge>
    <edge id="B0B1" from="B0" to="B1" priority="-1">
        <lane id="B0B1_0" index="0" speed="13.89" length="129.20" shape="154.80,10.40 154.80,139.60"/>
        <lane id="B0B1_1" index="1" speed="13.89" length="129.20" shape="151.60,10.40 151.60,139.60"/>
    </edge>
    <edge id="B0C0" from="B0" to="C0" priority="-1">
        <lane id="B0C0_0" index="0" speed="13.89" length="133.20" shape="160.40,-4.80 293.60,-4.80"/>
        <lane id="B0C0_1" index="1" speed="13.89" length="133.20" shape="160.40,-1.60 293.60,-1.60"/>
    </edge>
    <edge id="B1A1" from="B1" to="A1" priority="-1">
        <lane id="B1A1_0" index="0" speed="13.89" length="129.20" shape="139.60,154.80 10.40,154.80"/>
        <lane id="B1A1_1" index="1" speed="13.89" length="129.20" shape="139.60,151.60 10.40,151.60"/>
    </edge>
    <edge id="B1B0" from="B1" to="B0" priority="-1">
        <lane id="B1B0_0" index="0" speed="13.89" length="129.20" shape="145.20,139.60 145.20,10.40"/>
        <lane id="B1B0_1" index="1" speed="13.89" length="129.20" shape="148.40,139.60 148.40,10.40"/>
    </edge>
    <edge id="B1B2" from="B1" to="B2" priority="-1">
        <lane id="B1B2_0" index="0" speed="13.89" length="129.20" shape="154.80,160.40 154.80,289.60"/>
        <lane id="B1B2_1" index="1" speed="13.89" length="129.20" shape="151.60,160.40 151.60,289.60"/>
    </edge>
    <edge id="B1C1" from="B1" to="C1" priority="-1">
        <lane id="B1C1_0" index="0" speed="13.89" length="129.20" shape="160.40,145.20 289.60,145.20"/>
        <lane id="B1C1_1" index="1" speed="13.89" length="129.20" shape="160.40,148.40 289.60,148.40"/>
    </edge>
    <edge id="B2A2" from="B2" to="A2" priority="-1">
        <lane id="B2A2_0" index="0" speed="13.89" length="133.20" shape="139.60,304.80 6.40,304.80"/>
        <lane id="B2A2_1" index="1" speed="13.89" length="133.20" shape="139.60,301.60 6.40,301.60"/>
    </edge>
    <edge id="B2B1" from="B2" to="B1" priority="-1">
        <lane id="B2B1_0" index="0" speed="13.89" length="129.20" shape="145.20,289.60 145.20,160.40"/>
        <lane id="B2B1_1" index="1" speed="13.89" length="129.20" shape="148.40,289.60 148.40,160.40"/>
    </edge>
    <edge id="B2C2" from="B2" to="C2" priority="-1">
        <lane id="B2C2_0" index="0" speed="13.89" length="133.20" shape="160.40,295.20 293.60,295.20"/>
        <lane id="B2C2_1" index="1" speed="13.89" length="133.20" shape="160.40,298.40 293.60,298.40"/>
    </edge>
    <edge id="C0B0" from="C0" to="B0" priority="-1">
        <lane id="C0B0_0" index="0" speed="13.89" length="133.20" shape="293.60,4.80 160.40,4.80"/>
        <lane id="C0B0_1" index="1" speed="13.89" length="133.20" shape="293.60,1.60 160.40,1.60"/>
    </edge>
    <edge id="C0C1" from="C0" to="C1" priority="-1">
        <lane id="C0C1_0" index="0" speed="13.89" length="133.20" shape="304.80,6.40 304.80,139.60"/>
        <lane id="C0C1_1" index="1" speed="13.89" length="133.20" shape="301.60,6.40 301.60,139.60"/>
    </edge>
    <edge id="C1B1" from="C1" to="B1" priority="-1">
        <lane id="C1B1_0" index="0" speed="13.89" length="129.20" shape="289.60,154.80 160.40,154.80"/>
        <lane id="C1B1_1" index="1" speed="13.89" length="129.20" shape="289.60,151.60 160.40,151.60"/>
    </edge>
    <edge id="C1C0" from="C1" to="C0" priority="-1">
        <lane id="C1C0_0" index="0" speed="13.89" length="133.20" shape="295.20,139.60 295.20,6.40"/>
        <lane id="C1C0_1" index="1" speed="13.89" length="133.20" shape="298.40,139.60 298.40,6.40"/>
    </edge>
    <edge id="C1C2" from="C1" to="C2" priority="-1">
        <lane id="C1C2_0" index="0" speed="13.89" length="133.20" shape="304.80,160.40 304.80,293.60"/>
        <lane id="C1C2_1" index="1" speed="13.89" length="133.20" shape="301.60,160.40 301.60,293.60"/>
    </edge>
    <edge id="C2B2" from="C2" to="B2" priority="-1">
        <lane id="C2B2_0" index="0" speed="13.89" length="133.20" shape="293.60,304.80 160.40,304.80"/>
        <lane id="C2B2_1" index="1" speed="13.89" length="133.20" shape="293.60,301.60 160.40,301.60"/>
    </edge>
    <edge id="C2C1" from="C2" to="C1" priority="-1">
        <lane id="C2C1_0" index="0" speed="13.89" length="133.20" shape="295.20,293.60 295.20,160.40"/>
        <lane id="C2C1_1" index="1" speed="13.89" length="133.20" shape="298.40,293.60 298.40,160.40"/>
    </edge>

    <tlLogic id="A0" type="static" programID="0" offset="0">
        <phase duration="42" state="GGGG"/>
        <phase duration="3"  state="yyyy"/>
        <phase duration="42" state="GGGG"/>
        <phase duration="3"  state="yyyy"/>
    </tlLogic>
    <tlLogic id="A1" type="static" programID="0" offset="0">
        <phase duration="42" state="GGgrrrGGG"/>
        <phase duration="3"  state="yyyrrryyy"/>
        <phase duration="42" state="rrrGGGGrr"/>
        <phase duration="3"  state="rrryyyyrr"/>
    </tlLogic>
    <tlLogic id="A2" type="static" programID="0" offset="0">
        <phase duration="42" state="GGGG"/>
        <phase duration="3"  state="yyyy"/>
        <phase duration="42" state="GGGG"/>
        <phase duration="3"  state="yyyy"/>
    </tlLogic>
    <tlLogic id="B0" type="static" programID="0" offset="0">
        <phase duration="42" state="rrrGGGGGg"/>
        <phase duration="3"  state="rrryyyyyy"/>
        <phase duration="42" state="GGGGrrrrr"/>
        <phase duration="3"  state="yyyyrrrrr"/>
    </tlLogic>
    <tlLogic id="B1" type="static" programID="0" offset="0">
        <phase duration="42" state="GGGgrrrrGGGgrrrr"/>
        <phase duration="3"  state="yyyyrrrryyyyrrrr"/>
        <phase duration="42" state="rrrrGGGgrrrrGGGg"/>
        <phase duration="3"  state="rrrryyyyrrrryyyy"/>
    </tlLogic>
    <tlLogic id="B2" type="static" programID="0" offset="0">
        <phase duration="42" state="GGgrrrGGG"/>
        <phase duration="3"  state="yyyrrryyy"/>
        <phase duration="42" state="rrrGGGGrr"/>
        <phase duration="3"  state="rrryyyyrr"/>
    </tlLogic>
    <tlLogic id="C0" type="static" programID="0" offset="0">
        <phase duration="42" state="GGGG"/>
        <phase duration="3"  state="yyyy"/>
        <phase duration="42" state="GGGG"/>
        <phase duration="3"  state="yyyy"/>
    </tlLogic>
    <tlLogic id="C1" type="static" programID="0" offset="0">
        <phase duration="42" state="GGGGGgrrr"/>
        <phase duration="3"  state="yyyyyyrrr"/>
        <phase duration="42" state="GrrrrrGGG"/>
        <phase duration="3"  state="yrrrrryyy"/>
    </tlLogic>
    <tlLogic id="C2" type="static" programID="0" offset="0">
        <phase duration="42" state="GGGG"/>
        <phase duration="3"  state="yyyy"/>
        <phase duration="42" state="GGGG"/>
        <phase duration="3"  state="yyyy"/>
    </tlLogic>

    <junction id="A0" type="traffic_light" x="0.00" y="0.00" incLanes="A1A0_0 A1A0_1 B0A0_0 B0A0_1" intLanes=":A0_0_0 :A0_1_0 :A0_2_0 :A0_3_0" shape="-6.40,6.40 6.40,6.40 6.40,-6.40 2.49,-6.04 -0.71,-4.98 -3.20,-3.20 -4.98,-0.71 -6.04,2.49">
        <request index="0" response="0000" foes="0000" cont="0"/>
        <request index="1" response="0000" foes="0000" cont="0"/>
        <request index="2" response="0000" foes="0000" cont="0"/>
        <request index="3" response="0000" foes="0000" cont="0"/>
    </junction>
    <junction id="A1" type="traffic_light" x="0.00" y="150.00" incLanes="A2A1_0 A2A1_1 B1A1_0 B1A1_1 A0A1_0 A0A1_1" intLanes=":A1_0_0 :A1_0_1 :A1_9_0 :A1_3_0 :A1_4_0 :A1_5_0 :A1_6_0 :A1_7_0 :A1_7_1" shape="-6.40,160.40 6.40,160.40 6.84,158.18 7.40,157.40 8.18,156.84 9.18,156.51 10.40,156.40 10.40,143.60 8.18,143.16 7.40,142.60 6.84,141.82 6.51,140.82 6.40,139.60 -6.40,139.60">
        <request index="0" response="000000000" foes="000100000" cont="0"/>
        <request index="1" response="000000000" foes="000100000" cont="0"/>
        <request index="2" response="110000000" foes="110100000" cont="1"/>
        <request index="3" response="110000000" foes="110000000" cont="0"/>
        <request index="4" response="110000000" foes="110000000" cont="0"/>
        <request index="5" response="110000111" foes="110000111" cont="0"/>
        <request index="6" response="000000000" foes="000000000" cont="0"/>
        <request index="7" response="000000000" foes="000111100" cont="0"/>
        <request index="8" response="000000000" foes="000111100" cont="0"/>
    </junction>
    <junction id="A2" type="traffic_light" x="0.00" y="300.00" incLanes="B2A2_0 B2A2_1 A1A2_0 A1A2_1" intLanes=":A2_0_0 :A2_1_0 :A2_2_0 :A2_3_0" shape="6.40,306.40 6.40,293.60 -6.40,293.60 -6.04,297.51 -4.98,300.71 -3.20,303.20 -0.71,304.98 2.49,306.04">
        <request index="0" response="0000" foes="0000" cont="0"/>
        <request index="1" response="0000" foes="0000" cont="0"/>
        <request index="2" response="0000" foes="0000" cont="0"/>
        <request index="3" response="0000" foes="0000" cont="0"/>
    </junction>
    <junction id="B0" type="traffic_light" x="150.00" y="0.00" incLanes="B1B0_0 B1B0_1 C0B0_0 C0B0_1 A0B0_0 A0B0_1" intLanes=":B0_0_0 :B0_1_0 :B0_2_0 :B0_3_0 :B0_4_0 :B0_4_1 :B0_6_0 :B0_6_1 :B0_9_0" shape="143.60,10.40 156.40,10.40 156.84,8.18 157.40,7.40 158.18,6.84 159.18,6.51 160.40,6.40 160.40,-6.40 139.60,-6.40 139.60,6.40 141.82,6.84 142.60,7.40 143.16,8.18 143.49,9.18">
        <request index="0" response="000110000" foes="000110000" cont="0"/>
        <request index="1" response="000110000" foes="000110000" cont="0"/>
        <request index="2" response="111110000" foes="111110000" cont="0"/>
        <request index="3" response="000000000" foes="000000000" cont="0"/>
        <request index="4" response="000000000" foes="100000111" cont="0"/>
        <request index="5" response="000000000" foes="100000111" cont="0"/>
        <request index="6" response="000000000" foes="000000100" cont="0"/>
        <request index="7" response="000000000" foes="000000100" cont="0"/>
        <request index="8" response="000110000" foes="000110100" cont="1"/>
    </junction>
    <junction id="B1" type="traffic_light" x="150.00" y="150.00" incLanes="B2B1_0 B2B1_1 C1B1_0 C1B1_1 B0B1_0 B0B1_1 A1B1_0 A1B1_1" intLanes=":B1_0_0 :B1_1_0 :B1_1_1 :B1_16_0 :B1_4_0 :B1_5_0 :B1_5_1 :B1_17_0 :B1_8_0 :B1_9_0 :B1_9_1 :B1_18_0 :B1_12_0 :B1_13_0 :B1_13_1 :B1_19_0" shape="143.60,160.40 156.40,160.40 156.84,158.18 157.40,157.40 158.18,156.84 159.18,156.51 160.40,156.40 160.40,143.60 158.18,143.16 157.40,142.60 156.84,141.82 156.51,140.82 156.40,139.60 143.60,139.60 143.16,141.82 142.60,142.60 141.82,143.16 140.82,143.49 139.60,143.60 139.60,156.40 141.82,156.84 142.60,157.40 143.16,158.18 143.49,159.18">
        <request index="0"  response="0000000000000000" foes="0000000001100000" cont="0"/>
        <request index="1"  response="1000000010000000" foes="1111100011100000" cont="0"/>
        <request index="2"  response="1000000010000000" foes="1111100011100000" cont="0"/>
        <request index="3"  response="1000011010000000" foes="1110011011100000" cont="1"/>
        <request index="4"  response="0000011000000000" foes="0000011000000000" cont="0"/>
        <request index="5"  response="0000111000001111" foes="1000111000001111" cont="0"/>
        <request index="6"  response="0000111000001111" foes="1000111000001111" cont="0"/>
        <request index="7"  response="0110111000001110" foes="0110111000001110" cont="1"/>
        <request index="8"  response="0000000000000000" foes="0110000000000000" cont="0"/>
        <request index="9"  response="1000000010000000" foes="1110000011111000" cont="0"/>
        <request index="10" response="1000000010000000" foes="1110000011111000" cont="0"/>
        <request index="11" response="1000000010000110" foes="1110000011100110" cont="1"/>
        <request index="12" response="0000000000000110" foes="0000000000000110" cont="0"/>
        <request index="13" response="0000111100001110" foes="0000111110001110" cont="0"/>
        <request index="14" response="0000111100001110" foes="0000111110001110" cont="0"/>
        <request index="15" response="0000111001101110" foes="0000111001101110" cont="1"/>
    </junction>
    <junction id="B2" type="traffic_light" x="150.00" y="300.00" incLanes="C2B2_0 C2B2_1 B1B2_0 B1B2_1 A2B2_0 A2B2_1" intLanes=":B2_0_0 :B2_0_1 :B2_9_0 :B2_3_0 :B2_4_0 :B2_5_0 :B2_6_0 :B2_7_0 :B2_7_1" shape="160.40,306.40 160.40,293.60 158.18,293.16 157.40,292.60 156.84,291.82 156.51,290.82 156.40,289.60 143.60,289.60 143.16,291.82 142.60,292.60 141.82,293.16 140.82,293.49 139.60,293.60 139.60,306.40">
        <request index="0" response="000000000" foes="000100000" cont="0"/>
        <request index="1" response="000000000" foes="000100000" cont="0"/>
        <request index="2" response="110000000" foes="110100000" cont="1"/>
        <request index="3" response="110000000" foes="110000000" cont="0"/>
        <request index="4" response="110000000" foes="110000000" cont="0"/>
        <request index="5" response="110000111" foes="110000111" cont="0"/>
        <request index="6" response="000000000" foes="000000000" cont="0"/>
        <request index="7" response="000000000" foes="000111100" cont="0"/>
        <request index="8" response="000000000" foes="000111100" cont="0"/>
    </junction>
    <junction id="C0" type="traffic_light" x="300.00" y="0.00" incLanes="C1C0_0 C1C0_1 B0C0_0 B0C0_1" intLanes=":C0_0_0 :C0_1_0 :C0_2_0 :C0_3_0" shape="293.60,6.40 306.40,6.40 306.04,2.49 304.98,-0.71 303.20,-3.20 300.71,-4.98 297.51,-6.04 293.60,-6.40">
        <request index="0" response="0000" foes="0000" cont="0"/>
        <request index="1" response="0000" foes="0000" cont="0"/>
        <request index="2" response="0000" foes="0000" cont="0"/>
        <request index="3" response="0000" foes="0000" cont="0"/>
    </junction>