<?xml version="1.0" encoding="UTF-8"?>

<!-- generated on 08/23/21 15:35:22 by Eclipse SUMO netgenerate Version 1.8.0
<configuration xmlns:xsi="http://www.w3.org/2001/XMLSchema-instance" xsi:noNamespaceSchemaLocation="http://sumo.dlr.de/xsd/netgenerateConfiguration.xsd">

    <grid_network>
        <grid value="true"/>
        <grid.number value="3"/>
        <grid.length value="100"/>
    </grid_network>

    <random_network>
        <rand.random-lanenumber value="true"/>
    </random_network>

    <output>
        <output-file value="grid.net.xml"/>
    </output>

    <building_defaults>
        <default.lanenumber value="3"/>
        <default-junction-type value="traffic_light"/>
    </building_defaults>

    <junctions>
        <no-turnarounds value="true"/>
    </junctions>

</configuration>
-->

<net version="1.6" junctionCornerDetail="5" limitTurnSpeed="5.50" xmlns:xsi="http://www.w3.org/2001/XMLSchema-instance" xsi:noNamespaceSchemaLocation="http://sumo.dlr.de/xsd/net_file.xsd">

    <location netOffset="0.00,0.00" convBoundary="0.00,0.00,200.00,200.00" origBoundary="0.00,0.00,200.00,200.00" projParameter="!"/>

    <edge id=":A0_0" function="internal">
        <lane id=":A0_0_0" index="0" speed="11.36" length="29.67" shape="-8.00,13.60 -6.85,5.55 -3.40,-0.20 2.35,-3.65 10.40,-4.80"/>
    </edge>
    <edge id=":A0_1" function="internal">
        <lane id=":A0_1_0" index="0" speed="10.36" length="24.51" shape="-4.80,13.60 -3.85,6.95 -1.00,2.20 3.75,-0.65 10.40,-1.60"/>
    </edge>
    <edge id=":A0_2" function="internal">
        <lane id=":A0_2_0" index="0" speed="6.51" length="9.03" shape="10.40,8.00 7.95,8.35 6.20,9.40 5.15,11.15 4.80,13.60"/>
    </edge>
    <edge id=":A0_3" function="internal">
        <lane id=":A0_3_0" index="0" speed="8.00" length="14.19" shape="10.40,4.80 6.55,5.35 3.80,7.00 2.15,9.75 1.60,13.60"/>
    </edge>
    <edge id=":A1_0" function="internal">
        <lane id=":A1_0_0" index="0" speed="13.89" length="20.80" shape="-8.00,110.40 -8.00,89.60"/>
        <lane id=":A1_0_1" index="1" speed="13.89" length="20.80" shape="-4.80,110.40 -4.80,89.60"/>
        <lane id=":A1_0_2" index="2" speed="13.89" length="20.80" shape="-1.60,110.40 -1.60,89.60"/>
    </edge>
    <edge id=":A1_3" function="internal">
        <lane id=":A1_3_0" index="0" speed="9.26" length="6.96" shape="-1.60,110.40 -0.85,105.15 0.00,103.73"/>
    </edge>
    <edge id=":A1_9" function="internal">
        <lane id=":A1_9_0" index="0" speed="9.26" length="12.40" shape="0.00,103.73 1.40,101.40 5.15,99.15 10.40,98.40"/>
    </edge>
    <edge id=":A1_4" function="internal">
        <lane id=":A1_4_0" index="0" speed="7.33" length="11.73" shape="10.40,104.80 6.55,105.15 3.80,106.20 2.15,107.95 1.60,110.40"/>
    </edge>
    <edge id=":A1_5" function="internal">
        <lane id=":A1_5_0" index="0" speed="9.84" length="21.99" shape="10.40,101.60 3.75,100.85 -1.00,98.60 -3.85,94.85 -4.80,89.60"/>
    </edge>
    <edge id=":A1_6" function="internal">
        <lane id=":A1_6_0" index="0" speed="9.26" length="19.35" shape="10.40,101.60 5.15,100.85 1.40,98.60 -0.85,94.85 -1.60,89.60"/>
    </edge>
    <edge id=":A1_7" function="internal">
        <lane id=":A1_7_0" index="0" speed="6.51" length="9.03" shape="4.80,89.60 5.15,92.05 6.20,93.80 7.95,94.85 10.40,95.20"/>
    </edge>
    <edge id=":A1_8" function="internal">
        <lane id=":A1_8_0" index="0" speed="13.89" length="20.80" shape="1.60,89.60 1.60,110.40"/>
    </edge>
    <edge id=":A2_0" function="internal">
        <lane id=":A2_0_0" index="0" speed="8.96" length="18.06" shape="3.20,208.00 -1.70,207.30 -5.20,205.20 -7.30,201.70 -8.00,196.80"/>
    </edge>
    <edge id=":A2_1" function="internal">
        <lane id=":A2_1_0" index="0" speed="7.66" length="12.90" shape="3.20,204.80 -0.30,204.30 -2.80,202.80 -4.30,200.30 -4.80,196.80"/>
    </edge>
    <edge id=":A2_2" function="internal">
        <lane id=":A2_2_0" index="0" speed="6.08" length="7.74" shape="3.20,201.60 1.10,201.30 -0.40,200.40 -1.30,198.90 -1.60,196.80"/>
    </edge>
    <edge id=":A2_3" function="internal">
        <lane id=":A2_3_0" index="0" speed="3.90" length="2.58" shape="1.60,196.80 1.70,197.50 2.00,198.00 2.50,198.30 3.20,198.40"/>
    </edge>
    <edge id=":B0_0" function="internal">
        <lane id=":B0_0_0" index="0" speed="6.51" length="9.03" shape="95.20,13.60 94.85,11.15 93.80,9.40 92.05,8.35 89.60,8.00"/>
    </edge>
    <edge id=":B0_1" function="internal">
        <lane id=":B0_1_0" index="0" speed="8.00" length="14.19" shape="98.40,13.60 97.85,9.75 96.20,7.00 93.45,5.35 89.60,4.80"/>
    </edge>
    <edge id=":B0_2" function="internal">
        <lane id=":B0_2_0" index="0" speed="9.84" length="21.99" shape="98.40,13.60 99.15,6.95 101.40,2.20 105.15,-0.65 110.40,-1.60"/>
    </edge>
    <edge id=":B0_3" function="internal">
        <lane id=":B0_3_0" index="0" speed="6.51" length="9.03" shape="110.40,8.00 107.95,8.35 106.20,9.40 105.15,11.15 104.80,13.60"/>
    </edge>
    <edge id=":B0_4" function="internal">
        <lane id=":B0_4_0" index="0" speed="13.89" length="20.80" shape="110.40,8.00 89.60,8.00"/>
        <lane id=":B0_4_1" index="1" speed="13.89" length="20.80" shape="110.40,4.80 89.60,4.80"/>
        <lane id=":B0_4_2" index="2" speed="13.89" length="20.80" shape="110.40,1.60 89.60,1.60"/>
    </edge>
    <edge id=":B0_7" function="internal">
        <lane id=":B0_7_0" index="0" speed="13.89" length="21.09" shape="89.60,-4.80 96.37,-4.30 101.88,-3.20 106.45,-2.10 110.40,-1.60"/>
    </edge>
    <edge id=":B0_8" function="internal">
        <lane id=":B0_8_0" index="0" speed="9.84" length="6.41" shape="89.60,-1.60 94.85,-0.65 95.71,0.00"/>
    </edge>
    <edge id=":B0_9" function="internal">
        <lane id=":B0_9_0" index="0" speed="9.84" length="15.58" shape="95.71,0.00 98.60,2.20 100.85,6.95 101.60,13.60"/>
    </edge>
    <edge id=":B1_0" function="internal">
        <lane id=":B1_0_0" index="0" speed="7.33" length="11.73" shape="98.40,110.40 97.85,107.95 96.20,106.20 93.45,105.15 89.60,104.80"/>
    </edge>
    <edge id=":B1_1" function="internal">
        <lane id=":B1_1_0" index="0" speed="13.89" length="24.00" shape="98.40,110.40 98.40,86.40"/>
    </edge>
    <edge id=":B1_2" function="internal">
        <lane id=":B1_2_0" index="0" speed="9.26" length="9.54" shape="98.40,110.40 99.15,105.15 101.33,101.52"/>
    </edge>
    <edge id=":B1_14" function="internal">
        <lane id=":B1_14_0" index="0" speed="9.26" length="9.81" shape="101.33,101.52 101.40,101.40 105.15,99.15 110.40,98.40"/>
    </edge>
    <edge id=":B1_3" function="internal">
        <lane id=":B1_3_0" index="0" speed="7.33" length="11.73" shape="110.40,104.80 106.55,105.15 103.80,106.20 102.15,107.95 101.60,110.40"/>
    </edge>
    <edge id=":B1_4" function="internal">
        <lane id=":B1_4_0" index="0" speed="13.89" length="20.80" shape="110.40,104.80 89.60,104.80"/>
        <lane id=":B1_4_1" index="1" speed="13.89" length="20.80" shape="110.40,101.60 89.60,101.60"/>
    </edge>
    <edge id=":B1_6" function="internal">
        <lane id=":B1_6_0" index="0" speed="9.84" length="6.41" shape="110.40,101.60 105.15,100.65 104.29,100.00"/>
    </edge>
    <edge id=":B1_15" function="internal">
        <lane id=":B1_15_0" index="0" speed="9.84" length="15.58" shape="104.29,100.00 101.40,97.80 99.15,93.05 98.40,86.40"/>
    </edge>
    <edge id=":B1_7" function="internal">
        <lane id=":B1_7_0" index="0" speed="6.51" length="9.03" shape="104.80,86.40 105.15,88.85 106.20,90.60 107.95,91.65 110.40,92.00"/>
    </edge>
    <edge id=":B1_8" function="internal">
        <lane id=":B1_8_0" index="0" speed="13.89" length="24.24" shape="104.80,86.40 104.30,93.67 103.20,100.27 102.10,105.95 101.60,110.40"/>
    </edge>
    <edge id=":B1_9" function="internal">
        <lane id=":B1_9_0" index="0" speed="9.84" length="8.68" shape="101.60,86.40 100.85,93.05 100.00,94.84"/>
    </edge>
    <edge id=":B1_16" function="internal">
        <lane id=":B1_16_0" index="0" speed="9.84" length="13.32" shape="100.00,94.84 98.60,97.80 94.85,100.65 89.60,101.60"/>
    </edge>
    <edge id=":B1_10" function="internal">
        <lane id=":B1_10_0" index="0" speed="7.33" length="11.73" shape="89.60,95.20 92.05,94.65 93.80,93.00 94.85,90.25 95.20,86.40"/>
    </edge>
    <edge id=":B1_11" function="internal">
        <lane id=":B1_11_0" index="0" speed="13.89" length="20.80" shape="89.60,95.20 110.40,95.20"/>
        <lane id=":B1_11_1" index="1" speed="13.89" length="20.80" shape="89.60,98.40 110.40,98.40"/>
    </edge>
    <edge id=":B1_13" function="internal">
        <lane id=":B1_13_0" index="0" speed="9.26" length="6.96" shape="89.60,98.40 94.85,99.15 96.27,100.00"/>
    </edge>
    <edge id=":B1_17" function="internal">
        <lane id=":B1_17_0" index="0" speed="9.26" length="12.40" shape="96.27,100.00 98.60,101.40 100.85,105.15 101.60,110.40"/>
    </edge>
    <edge id=":B2_0" function="internal">
        <lane id=":B2_0_0" index="0" speed="13.89" length="14.86" shape="107.20,204.80 102.88,205.30 100.00,206.40 97.12,207.50 92.80,208.00"/>
        <lane id=":B2_0_1" index="1" speed="13.89" length="14.86" shape="107.20,201.60 102.88,202.10 100.00,203.20 97.12,204.30 92.80,204.80"/>
    </edge>
    <edge id=":B2_2" function="internal">
        <lane id=":B2_2_0" index="0" speed="9.32" length="4.87" shape="107.20,201.60 103.35,200.65 102.72,200.00"/>
    </edge>
    <edge id=":B2_9" function="internal">
        <lane id=":B2_9_0" index="0" speed="9.32" length="14.76" shape="102.72,200.00 100.60,197.80 98.95,193.05 98.40,186.40"/>
    </edge>
    <edge id=":B2_3" function="internal">
        <lane id=":B2_3_0" index="0" speed="6.51" length="9.03" shape="101.60,186.40 101.95,188.85 103.00,190.60 104.75,191.65 107.20,192.00"/>
    </edge>
    <edge id=":B2_4" function="internal">
        <lane id=":B2_4_0" index="0" speed="9.94" length="22.48" shape="101.60,186.40 101.05,194.45 99.40,200.20 96.65,203.65 92.80,204.80"/>
    </edge>
    <edge id=":B2_5" function="internal">
        <lane id=":B2_5_0" index="0" speed="9.32" length="19.63" shape="101.60,186.40 101.05,193.05 99.40,197.80 96.65,200.65 92.80,201.60"/>
    </edge>
    <edge id=":B2_6" function="internal">
        <lane id=":B2_6_0" index="0" speed="8.10" length="14.57" shape="92.80,198.40 95.25,197.65 97.00,195.40 98.05,191.65 98.40,186.40"/>
    </edge>
    <edge id=":B2_7" function="internal">
        <lane id=":B2_7_0" index="0" speed="13.89" length="14.62" shape="92.80,198.40 96.12,197.90 99.11,196.80 102.54,195.70 107.20,195.20"/>
        <lane id=":B2_7_1" index="1" speed="13.89" length="14.62" shape="92.80,198.40 107.20,198.40"/>
    </edge>
    <edge id=":C0_0" function="internal">
        <lane id=":C0_0_0" index="0" speed="6.51" length="9.03" shape="198.40,13.60 198.05,11.15 197.00,9.40 195.25,8.35 192.80,8.00"/>
    </edge>
    <edge id=":C0_1" function="internal">
        <lane id=":C0_1_0" index="0" speed="7.33" length="11.73" shape="198.40,13.60 198.05,9.75 197.00,7.00 195.25,5.35 192.80,4.80"/>
    </edge>
    <edge id=":C0_2" function="internal">
        <lane id=":C0_2_0" index="0" speed="8.10" length="14.57" shape="198.40,13.60 198.05,8.35 197.00,4.60 195.25,2.35 192.80,1.60"/>
    </edge>
    <edge id=":C0_3" function="internal">
        <lane id=":C0_3_0" index="0" speed="9.84" length="21.99" shape="192.80,-1.60 198.05,-0.65 201.80,2.20 204.05,6.95 204.80,13.60"/>
    </edge>
    <edge id=":C0_4" function="internal">
        <lane id=":C0_4_0" index="0" speed="9.32" length="19.63" shape="192.80,-1.60 196.65,-0.65 199.40,2.20 201.05,6.95 201.60,13.60"/>
    </edge>
    <edge id=":C1_0" function="internal">
        <lane id=":C1_0_0" index="0" speed="6.51" length="9.03" shape="198.40,110.40 198.05,107.95 197.00,106.20 195.25,105.15 192.80,104.80"/>
    </edge>
    <edge id=":C1_1" function="internal">
        <lane id=":C1_1_0" index="0" speed="13.89" length="24.00" shape="198.40,110.40 198.40,86.40"/>
    </edge>
    <edge id=":C1_2" function="internal">
        <lane id=":C1_2_0" index="0" speed="13.89" length="24.24" shape="204.80,86.40 204.30,93.67 203.20,100.27 202.10,105.95 201.60,110.40"/>
    </edge>
    <edge id=":C1_3" function="internal">
        <lane id=":C1_3_0" index="0" speed="9.32" length="9.87" shape="201.60,86.40 201.05,93.05 200.00,96.07"/>
    </edge>
    <edge id=":C1_6" function="internal">
        <lane id=":C1_6_0" index="0" speed="9.32" length="9.75" shape="200.00,96.07 199.40,97.80 196.65,100.65 192.80,101.60"/>
    </edge>
    <edge id=":C1_4" function="internal">
        <lane id=":C1_4_0" index="0" speed="6.51" length="9.03" shape="192.80,92.00 195.25,91.65 197.00,90.60 198.05,88.85 198.40,86.40"/>
    </edge>
    <edge id=":C1_5" function="internal">
        <lane id=":C1_5_0" index="0" speed="8.67" length="16.85" shape="192.80,98.40 196.65,99.15 199.40,101.40 201.05,105.15 201.60,110.40"/>
    </edge>
    <edge id=":C2_0" function="internal">
        <lane id=":C2_0_0" index="0" speed="9.94" length="22.48" shape="201.60,186.40 201.05,194.45 199.40,200.20 196.65,203.65 192.80,204.80"/>
    </edge>
    <edge id=":C2_1" function="internal">
        <lane id=":C2_1_0" index="0" speed="9.32" length="19.63" shape="201.60,186.40 201.05,193.05 199.40,197.80 196.65,200.65 192.80,201.60"/>
    </edge>
    <edge id=":C2_2" function="internal">
        <lane id=":C2_2_0" index="0" speed="6.51" length="9.03" shape="192.80,192.00 195.25,191.65 197.00,190.60 198.05,188.85 198.40,186.40"/>
    </edge>

    <edge id="A0A1" from="A0" to="A1" priority="-1">
        <lane id="A0A1_0" index="0" speed="13.89" length="76.00" shape="4.80,13.60 4.80,89.60"/>
        <lane id="A0A1_1" index="1" speed="13.89" length="76.00" shape="1.60,13.60 1.60,89.60"/>
    </edge>
    <edge id="A0B0" from="A0" to="B0" priority="-1">
        <lane id="A0B0_0" index="0" speed="13.89" length="79.20" shape="10.40,-4.80 89.60,-4.80"/>
        <lane id="A0B0_1" index="1" speed="13.89" length="79.20" shape="10.40,-1.60 89.60,-1.60"/>
    </edge>
    <edge id="A1A0" from="A1" to="A0" priority="-1">
        <lane id="A1A0_0" index="0" speed="13.89" length="76.00" shape="-8.00,89.60 -8.00,13.60"/>
        <lane id="A1A0_1" index="1" speed="13.89" length="76.00" shape="-4.80,89.60 -4.80,13.60"/>
        <lane id="A1A0_2" index="2" speed="13.89" length="76.00" shape="-1.60,89.60 -1.60,13.60"/>
    </edge>
    <edge id="A1A2" from="A1" to="A2" priority="-1">
        <lane id="A1A2_0" index="0" speed="13.89" length="86.40" shape="1.60,110.40 1.60,196.80"/>
    </edge>
    <edge id="A1B1" from="A1" to="B1" priority="-1">
        <lane id="A1B1_0" index="0" speed="13.89" length="79.20" shape="10.40,95.20 89.60,95.20"/>
        <lane id="A1B1_1" index="1" speed="13.89" length="79.20" shape="10.40,98.40 89.60,98.40"/>
    </edge>
    <edge id="A2A1" from="A2" to="A1" priority="-1">
        <lane id="A2A1_0" index="0" speed="13.89" length="86.40" shape="-8.00,196.80 -8.00,110.40"/>
        <lane id="A2A1_1" index="1" speed="13.89" length="86.40" shape="-4.80,196.80 -4.80,110.40"/>
        <lane id="A2A1_2" index="2" speed="13.89" length="86.40" shape="-1.60,196.80 -1.60,110.40"/>
    </edge>
    <edge id="A2B2" from="A2" to="B2" priority="-1">
        <lane id="A2B2_0" index="0" speed="13.89" length="89.60" shape="3.20,198.40 92.80,198.40"/>
    </edge>
    <edge id="B0A0" from="B0" to="A0" priority="-1">
        <lane id="B0A0_0" index="0" speed="13.89" length="79.20" shape="89.60,8.00 10.40,8.00"/>
        <lane id="B0A0_1" index="1" speed="13.89" length="79.20" shape="89.60,4.80 10.40,4.80"/>
        <lane id="B0A0_2" index="2" speed="13.89" length="79.20" shape="89.60,1.60 10.40,1.60"/>
    </edge>
    <edge id="B0B1" from="B0" to="B1" priority="-1">
        <lane id="B0B1_0" index="0" speed="13.89" length="72.80" shape="104.80,13.60 104.80,86.40"/>
        <lane id="B0B1_1" index="1" speed="13.89" length="72.80" shape="101.60,13.60 101.60,86.40"/>
    </edge>
    <edge id="B0C0" from="B0" to="C0" priority="-1">
        <lane id="B0C0_0" index="0" speed="13.89" length="82.40" shape="110.40,-1.60 192.80,-1.60"/>
    </edge>
    <edge id="B1A1" from="B1" to="A1" priority="-1">
        <lane id="B1A1_0" index="0" speed="13.89" length="79.20" shape="89.60,104.80 10.40,104.80"/>
        <lane id="B1A1_1" index="1" speed="13.89" length="79.20" shape="89.60,101.60 10.40,101.60"/>
    </edge>
    <edge id="B1B0" from="B1" to="B0" priority="-1">
        <lane id="B1B0_0" index="0" speed="13.89" length="72.80" shape="95.20,86.40 95.20,13.60"/>
        <lane id="B1B0_1" index="1" speed="13.89" length="72.80" shape="98.40,86.40 98.40,13.60"/>
    </edge>
    <edge id="B1B2" from="B1" to="B2" priority="-1">
        <lane id="B1B2_0" index="0" speed="13.89" length="76.00" shape="101.60,110.40 101.60,186.40"/>
    </edge>
    <edge id="B1C1" from="B1" to="C1" priority="-1">
        <lane id="B1C1_0" index="0" speed="13.89" length="82.40" shape="110.40,92.00 192.80,92.00"/>
        <lane id="B1C1_1" index="1" speed="13.89" length="82.40" shape="110.40,95.20 192.80,95.20"/>
        <lane id="B1C1_2" index="2" speed="13.89" length="82.40" shape="110.40,98.40 192.80,98.40"/>
    </edge>
    <edge id="B2A2" from="B2" to="A2" priority="-1">
        <lane id="B2A2_0" index="0" speed="13.89" length="89.60" shape="92.80,208.00 3.20,208.00"/>
        <lane id="B2A2_1" index="1" speed="13.89" length="89.60" shape="92.80,204.80 3.20,204.80"/>
        <lane id="B2A2_2" index="2" speed="13.89" length="89.60" shape="92.80,201.60 3.20,201.60"/>
    </edge>
    <edge id="B2B1" from="B2" to="B1" priority="-1">
        <lane id="B2B1_0" index="0" speed="13.89" length="76.00" shape="98.40,186.40 98.40,110.40"/>
    </edge>
    <edge id="B2C2" from="B2" to="C2" priority="-1">
        <lane id="B2C2_0" index="0" speed="13.89" length="85.60" shape="107.20,192.00 192.80,192.00"/>
        <lane id="B2C2_1" index="1" speed="13.89" length="85.60" shape="107.20,195.20 192.80,195.20"/>
        <lane id="B2C2_2" index="2" speed="13.89" length="85.60" shape="107.20,198.40 192.80,198.40"/>
    </edge>
    <edge id="C0B0" from="C0" to="B0" priority="-1">
        <lane id="C0B0_0" index="0" speed="13.89" length="82.40" shape="192.80,8.00 110.40,8.00"/>
        <lane id="C0B0_1" index="1" speed="13.89" length="82.40" shape="192.80,4.80 110.40,4.80"/>
        <lane id="C0B0_2" index="2" speed="13.89" length="82.40" shape="192.80,1.60 110.40,1.60"/>
    </edge>
    <edge id="C0C1" from="C0" to="C1" priority="-1">
        <lane id="C0C1_0" index="0" speed="13.89" length="72.80" shape="204.80,13.60 204.80,86.40"/>
        <lane id="C0C1_1" index="1" speed="13.89" length="72.80" shape="201.60,13.60 201.60,86.40"/>
    </edge>
    <edge id="C1B1" from="C1" to="B1" priority="-1">
        <lane id="C1B1_0" index="0" speed="13.89" length="82.40" shape="192.80,104.80 110.40,104.80"/>
        <lane id="C1B1_1" index="1" speed="13.89" length="82.40" shape="192.80,101.60 110.40,101.60"/>
    </edge>
    <edge id="C1C0" from="C1" to="C0" priority="-1">
        <lane id="C1C0_0" index="0" speed="13.89" length="72.80" shape="198.40,86.40 198.40,13.60"/>
    </edge>
    <edge id="C1C2" from="C1" to="C2" priority="-1">
        <lane id="C1C2_0" index="0" speed="13.89" length="76.00" shape="201.60,110.40 201.60,186.40"/>
    </edge>
    <edge id="C2B2" from="C2" to="B2" priority="-1">
        <lane id="C2B2_0" index="0" speed="13.89" length="85.60" shape="192.80,204.80 107.20,204.80"/>
        <lane id="C2B2_1" index="1" speed="13.89" length="85.60" shape="192.80,201.60 107.20,201.60"/>
    </edge>
    <edge id="C2C1" from="C2" to="C1" priority="-1">
        <lane id="C2C1_0" index="0" speed="13.89" length="76.00" shape="198.40,186.40 198.40,110.40"/>
    </edge>

    <tlLogic id="A0" type="static" programID="0" offset="0">
        <phase duration="42" state="GGGG"/>
        <phase duration="3"  state="yyyy"/>
        <phase duration="42" state="GGGG"/>
        <phase duration="3"  state="yyyy"/>
    </tlLogic>
    <tlLogic id="A1" type="static" programID="0" offset="0">
        <phase duration="42" state="GGGgrrrGG"/>
        <phase duration="3"  state="yyyyrrryy"/>
        <phase duration="42" state="rrrrGGGGr"/>
        <phase duration="3"  state="rrrryyyyr"/>
    </tlLogic>
    <tlLogic id="A2" type="static" programID="0" offset="0">
        <phase duration="42" state="GGGG"/>
        <phase duration="3"  state="yyyy"/>
        <phase duration="42" state="GGGG"/>
        <phase duration="3"  state="yyyy"/>
    </tlLogic>
    <tlLogic id="B0" type="static" programID="0" offset="0">
        <phase duration="38" state="rrrGGGGGg"/>
        <phase duration="3"  state="rrryyyyyg"/>
        <phase duration="6"  state="rrrrrrrGG"/>
        <phase duration="3"  state="rrrrrrryy"/>
        <phase duration="37" state="GGGGrrrrr"/>
        <phase duration="3"  state="yyyyrrrrr"/>
    </tlLogic>
    <tlLogic id="B1" type="static" programID="0" offset="0">
        <phase duration="38" state="rrrGGGgrrrGGGg"/>
        <phase duration="3"  state="rrryyyyrrryyyy"/>
        <phase duration="37" state="GGgrrrrGGgrrrr"/>
        <phase duration="3"  state="yygrrrryygrrrr"/>
        <phase duration="6"  state="rrGrrrrrrGrrrr"/>
        <phase duration="3"  state="rryrrrrrryrrrr"/>
    </tlLogic>
    <tlLogic id="B2" type="static" programID="0" offset="0">
        <phase duration="42" state="GGgGrrGGG"/>
        <phase duration="3"  state="yyyyrryyy"/>
        <phase duration="42" state="rrrGGGGrr"/>
        <phase duration="3"  state="rrryyyyrr"/>
    </tlLogic>
    <tlLogic id="C0" type="static" programID="0" offset="0">
        <phase duration="42" state="GGGGG"/>
        <phase duration="3"  state="yyyyy"/>
        <phase duration="42" state="GGGGG"/>
        <phase duration="3"  state="yyyyy"/>
    </tlLogic>
    <tlLogic id="C1" type="static" programID="0" offset="0">
        <phase duration="38" state="GGGgrr"/>
        <phase duration="3"  state="yyygrr"/>
        <phase duration="6"  state="rrGGrr"/>
        <phase duration="3"  state="rryyrr"/>
        <phase duration="37" state="GrrrGG"/>
        <phase duration="3"  state="yrrryy"/>
    </tlLogic>
    <tlLogic id="C2" type="static" programID="0" offset="0">
        <phase duration="42" state="GGG"/>
        <phase duration="3"  state="yyy"/>
        <phase duration="42" state="GGG"/>
        <phase duration="3"  state="yyy"/>
    </tlLogic>

    <junction id="A0" type="traffic_light" x="0.00" y="0.00" incLanes="A1A0_0 A1A0_1 A1A0_2 B0A0_0 B0A0_1 B0A0_2" intLanes=":A0_0_0 :A0_1_0 :A0_2_0 :A0_3_0" shape="-9.60,13.60 6.40,13.60 6.84,11.38 7.40,10.60 8.18,10.04 9.18,9.71 10.40,9.60 10.40,-6.40 4.29,-5.84 -0.71,-4.18 -4.60,-1.40 -7.38,2.49 -9.04,7.49">
        <request index="0" response="0000" foes="0000" cont="0"/>
        <request index="1" response="0000" foes="0000" cont="0"/>
        <request index="2" response="0000" foes="0000" cont="0"/>
        <request index="3" response="0000" foes="0000" cont="0"/>
    </junction>
    <junction id="A1" type="traffic_light" x="0.00" y="100.00" incLanes="A2A1_0 A2A1_1 A2A1_2 B1A1_0 B1A1_1 A0A1_0 A0A1_1" intLanes=":A1_0_0 :A1_0_1 :A1_0_2 :A1_9_0 :A1_4_0 :A1_5_0 :A1_6_0 :A1_7_0 :A1_8_0" shape="-9.60,110.40 3.20,110.40 4.00,108.18 5.00,107.40 6.40,106.84 8.20,106.51 10.40,106.40 10.40,93.60 8.18,93.16 7.40,92.60 6.84,91.82 6.51,90.82 6.40,89.60 -9.60,89.60">
        <request index="0" response="000000000" foes="001100000" cont="0"/>
        <request index="1" response="000000000" foes="001100000" cont="0"/>
        <request index="2" response="000000000" foes="001100000" cont="0"/>
        <request index="3" response="100000000" foes="101100000" cont="1"/>
        <request index="4" response="100000000" foes="100000000" cont="0"/>
        <request index="5" response="100001111" foes="100001111" cont="0"/>
        <request index="6" response="100001111" foes="100001111" cont="0"/>
        <request index="7" response="000000000" foes="000000000" cont="0"/>
        <request index="8" response="000000000" foes="001111000" cont="0"/>
    </junction>
    <junction id="A2" type="traffic_light" x="0.00" y="200.00" incLanes="B2A2_0 B2A2_1 B2A2_2 A1A2_0" intLanes=":A2_0_0 :A2_1_0 :A2_2_0 :A2_3_0" shape="3.20,209.60 3.20,196.80 -9.60,196.80 -9.24,200.71 -8.18,203.91 -6.40,206.40 -3.91,208.18 -0.71,209.24">
        <request index="0" response="0000" foes="0000" cont="0"/>
        <request index="1" response="0000" foes="0000" cont="0"/>
        <request index="2" response="0000" foes="0000" cont="0"/>
        <request index="3" response="0000" foes="0000" cont="0"/>
    </junction>
    <junction id="B0" type="traffic_light" x="100.00" y="0.00" incLanes="B1B0_0 B1B0_1 C0B0_0 C0B0_1 C0B0_2 A0B0_0 A0B0_1" intLanes=":B0_0_0 :B0_1_0 :B0_2_0 :B0_3_0 :B0_4_0 :B0_4_1 :B0_4_2 :B0_7_0 :B0_9_0" shape="93.60,13.60 106.40,13.60 106.84,11.38 107.40,10.60 108.18,10.04 109.18,9.71 110.40,9.60 110.40,-3.20 105.94,-3.44 102.67,-4.03 97.33,-5.57 94.06,-6.16 89.60,-6.40 89.60,9.60 91.82,10.04 92.60,10.60 93.16,11.38 93.49,12.38">
        <request index="0" response="001110000" foes="001110000" cont="0"/>
        <request index="1" response="001110000" foes="001110000" cont="0"/>
        <request index="2" response="111110000" foes="111110000" cont="0"/>
        <request index="3" response="000000000" foes="000000000" cont="0"/>
        <request index="4" response="000000000" foes="100000111" cont="0"/>
        <request index="5" response="000000000" foes="100000111" cont="0"/>
        <request index="6" response="000000000" foes="100000111" cont="0"/>
        <request index="7" response="000000000" foes="000000100" cont="0"/>
        <request index="8" response="001110000" foes="001110100" cont="1"/>
    </junction>
    <junction id="B1" type="traffic_light" x="100.00" y="100.00" incLanes="B2B1_0 C1B1_0 C1B1_1 B0B1_0 B0B1_1 A1B1_0 A1B1_1" intLanes=":B1_0_0 :B1_1_0 :B1_14_0 :B1_3_0 :B1_4_0 :B1_4_1 :B1_15_0 :B1_7_0 :B1_8_0 :B1_16_0 :B1_10_0 :B1_11_0 :B1_11_1 :B1_17_0" shape="96.80,110.40 103.20,110.40 104.00,108.18 105.00,107.40 106.40,106.84 108.20,106.51 110.40,106.40 110.40,90.40 108.18,89.96 107.40,89.40 106.84,88.62 106.51,87.62 106.40,86.40 93.60,86.40 93.49,88.60 93.16,90.40 92.60,91.80 91.82,92.80 90.82,93.40 89.60,93.60 89.60,106.40 91.80,106.51 93.60,106.84 95.00,107.40 96.00,108.18 96.60,109.18">
        <request index="0"  response="00000000110000" foes="00000000110000" cont="0"/>
        <request index="1"  response="11100001110000" foes="11101001110000" cont="0"/>
        <request index="2"  response="11100101110000" foes="11100101110000" cont="1"/>
        <request index="3"  response="00000000000000" foes="10000100000000" cont="0"/>
        <request index="4"  response="00001000000100" foes="10001100000111" cont="0"/>
        <request index="5"  response="00001000000100" foes="10001100000111" cont="0"/>
        <request index="6"  response="01101000000100" foes="01101100000110" cont="1"/>
        <request index="7"  response="00000000000000" foes="00000000000000" cont="0"/>
        <request index="8"  response="11100001111000" foes="11100001111100" cont="0"/>
        <request index="9"  response="11100001110010" foes="11100001110010" cont="1"/>
        <request index="10" response="00000000000000" foes="00000000000000" cont="0"/>
        <request index="11" response="00001000000100" foes="00001101000110" cont="0"/>
        <request index="12" response="00001000000100" foes="00001101000110" cont="0"/>
        <request index="13" response="00001000111100" foes="00001100111110" cont="1"/>
    </junction>
    <junction id="B2" type="traffic_light" x="100.00" y="200.00" incLanes="C2B2_0 C2B2_1 B1B2_0 A2B2_0" intLanes=":B2_0_0 :B2_0_1 :B2_9_0 :B2_3_0 :B2_4_0 :B2_5_0 :B2_6_0 :B2_7_0 :B2_7_1" shape="107.20,206.40 107.20,190.40 104.98,189.96 104.20,189.40 103.64,188.62 103.31,187.62 103.20,186.40 96.80,186.40 96.69,189.58 96.36,192.18 95.80,194.20 95.02,195.64 94.02,196.51 92.80,196.80 92.80,209.60 95.92,209.36 98.17,208.77 101.83,207.23 104.08,206.64">
        <request index="0" response="000000000" foes="000110000" cont="0"/>
        <request index="1" response="000000000" foes="000110000" cont="0"/>
        <request index="2" response="111000000" foes="111110000" cont="1"/>
        <request index="3" response="000000000" foes="000000000" cont="0"/>
        <request index="4" response="110000111" foes="110000111" cont="0"/>
        <request index="5" response="110000111" foes="110000111" cont="0"/>
        <request index="6" response="000000000" foes="000000100" cont="0"/>
        <request index="7" response="000000000" foes="000110100" cont="0"/>
        <request index="8" response="000000000" foes="000110100" cont="0"/>
    </junction>
    <junction id="C0" type="traffic_light" x="200.00" y="0.00" incLanes="C1C0_0 B0C0_0" intLanes=":C0_0_0 :C0_1_0 :C0_2_0 :C0_3_0 :C0_4_0" shape="196.80,13.60 206.40,13.60 206.02,8.47 204.89,4.27 203.00,1.00 200.36,-1.33 196.96,-2.73 192.80,-3.20 192.80,9.60 195.02,10.04 195.80,10.60 196.36,11.38 196.69,12.38">
        <request index="0" response="00000" foes="00000" cont="0"/>
        <request index="1" response="00000" foes="00000" cont="0"/>
        <request index="2" response="00000" foes="00000" cont="0"/>
        <request index="3" response="00000" foes="00000" cont="0"/>
        <request index="4" response="00000" foes="00000" cont="0"/>
    </junction>
    <junction id="C1" type="traffic_light" x="200.00" y="100.00" incLanes="C2C1_0 C0C1_0 C0C1_1 B1C1_0 B1C1_1 B1C1_2" intLanes=":C1_0_0 :C1_1_0 :C1_2_0 :C1_6_0 :C1_4_0 :C1_5_0" shape="196.80,110.40 203.20,110.40 203.44,105.26 204.03,101.49 205.57,95.31 206.16,91.54 206.40,86.40 196.80,86.40 196.36,88.62 195.80,89.40 195.02,89.96 194.02,90.29 192.80,90.40 192.80,106.40 195.02,106.84 195.80,107.40 196.36,108.18 196.69,109.18">