<routes>
        <vType id="typeWE" accel="0.8" decel="4.5" sigma="0.5" length="2.85" minGap="1" maxSpeed="30" guiShape="passenger"/>
        <vType id="typeNS" accel="0.8" decel="5" sigma="0.5" length="2.7" minGap="1" maxSpeed="30" guiShape="emergency"/>
        <vType id="typeSN1" accel="0.8" decel="4.5" sigma="0.5" length="2.7" minGap="1" maxSpeed="30" guiShape="bus"/>
        <vType id="typeSE" accel="0.8" decel="4.5" sigma="0.5" length="2.7" minGap="1" maxSpeed="30" guiShape="bus"/>
        <vType id="typeNW" accel="0.8" decel="4.5" sigma="0.5" length="2.7" minGap="1" maxSpeed="30" guiShape="emergency"/>
        
        <route id="right" edges="51o 1i 2o 52i" />
        <route id="left" edges="52o 2i 1o 51i" />
        <route id="down" edges="54o 4i 3o 53i" />
        <route id="up" edges="53o 3i 4o 54i" />
        <route id="upleft" edges="54o 4i 1o 51i" />
        <route id="southright" edges="53o 3i 2o 52i" />
    <vehicle id="southright_0" type="typeSE" route="southright" depart="0" />
    <vehicle id="upleft_1" type="typeNW" route="upleft" depart="0" />
    <vehicle id="down_2" type="typeNS" route="down" depart="3" color="1,0,0"/>
    <vehicle id="right_3" type="typeWE" route="right" depart="4" />
    <vehicle id="right_4" type="typeWE" route="right" depart="5" />
    <vehicle id="down_5" type="typeNS" route="down" depart="5" color="1,0,0"/>
    <vehicle id="upleft_6" type="typeNW" route="upleft" depart="6" />
    <vehicle id="upleft_7" type="typeNW" route="upleft" depart="7" />
    <vehicle id="upleft_8" type="typeNW" route="upleft" depart="8" />
    <vehicle id="upleft_9" type="typeNW" route="upleft" depart="9" />
    <vehicle id="down_10" type="typeNS" route="down" depart="9" color="1,0,0"/>
    <vehicle id="upleft_11" type="typeNW" route="upleft" depart="10" />
    <vehicle id="southright_12" type="typeSE" route="southright" depart="11" />
    <vehicle id="upleft_13" type="typeNW" route="upleft" depart="11" />
    <vehicle id="left_14" type="typeWE" route="left" depart="12" />
    <vehicle id="down_15" type="typeNS" route="down" depart="12" color="1,0,0"/>
    <vehicle id="left_16" type="typeWE" route="left" depart="13" />
    <vehicle id="southright_17" type="typeSE" route="southright" depart="13" />
    <vehicle id="down_18" type="typeNS" route="down" depart="13" color="1,0,0"/>
    <vehicle id="southright_19" type="typeSE" route="southright" depart="15" />
    <vehicle id="left_20" type="typeWE" route="left" depart="18" />
    <vehicle id="upleft_21" type="typeNW" route="upleft" depart="19" />
    <vehicle id="down_22" type="typeNS" route="down" depart="19" color="1,0,0"/>
    <vehicle id="left_23" type="typeWE" route="left" depart="20" />
    <vehicle id="southright_24" type="typeSE" route="southright" depart="20" />
    <vehicle id="upleft_25" type="typeNW" route="upleft" depart="20" />
    <vehicle id="right_26" type="typeWE" route="right" depart="21" />
    <vehicle id="down_27" type="typeNS" route="down" depart="21" color="1,0,0"/>
    <vehicle id="southright_28" type="typeSE" route="southright" depart="23" />
    <vehicle id="left_29" type="typeWE" route="left" depart="25" />
    <vehicle id="southright_30" type="typeSE" route="southright" depart="25" />
    <vehicle id="right_31" type="typeWE" route="right" depart="26" />
    <vehicle id="left_32" type="typeWE" route="left" depart="27" />
    <vehicle id="southright_33" type="typeSE" route="southright" depart="27" />
</routes>
