<routes>
        <vType id="typeWE" accel="0.8" decel="4.5" sigma="0.5" length="2.85" minGap="1" maxSpeed="30" guiShape="passenger"/>
        <vType id="typeNS" accel="0.8" decel="5" sigma="0.5" length="2.7" minGap="1" maxSpeed="30" guiShape="emergency"/>
        <vType id="typeSN1" accel="0.8" decel="4.5" sigma="0.5" length="2.7" minGap="1" maxSpeed="30" guiShape="bus"/>
        <vType id="typeSE" accel="0.8" decel="4.5" sigma="0.5" length="2.7" minGap="1" maxSpeed="30" guiShape="bus"/>
        <vType id="typeNW" accel="0.8" decel="4.5" sigma="0.5" length="2.7" minGap="1" maxSpeed="30" guiShape="emergency"/>
        
        <route id="right" edges="51o 1i 2o 52i" />
        <route id="left" edges="52o 2i 1o 51i" />
        <route id="down" edges="54o 4i 3o 53i" />
        <route id="up" edges="53o 3i 4o 54i" />
        <route id="upleft" edges="54o 4i 1o 51i" />
        <route id="southright" edges="53o 3i 2o 52i" />
    <vehicle id="upleft_0" type="typeNW" route="upleft" depart="0" />
    <vehicle id="left_1" type="typeWE" route="left" depart="2" />
    <vehicle id="down_2" type="typeNS" route="down" depart="2" color="1,0,0"/>
    <vehicle id="upleft_3" type="typeNW" route="upleft" depart="4" />
    <vehicle id="left_4" type="typeWE" route="left" depart="6" />
    <vehicle id="left_5" type="typeWE" route="left" depart="9" />
    <vehicle id="down_6" type="typeNS" route="down" depart="9" color="1,0,0"/>
    <vehicle id="right_7" type="typeWE" route="right" depart="14" />
    <vehicle id="down_8" type="typeNS" route="down" depart="14" color="1,0,0"/>
    <vehicle id="right_9" type="typeWE" route="right" depart="15" />
    <vehicle id="upleft_10" type="typeNW" route="upleft" depart="18" />
    <vehicle id="down_11" type="typeNS" route="down" depart="18" color="1,0,0"/>
    <vehicle id="down_12" type="typeNS" route="down" depart="19" color="1,0,0"/>
    <vehicle id="southright_13" type="typeSE" route="southright" depart="21" />
    <vehicle id="left_14" type="typeWE" route="left" depart="22" />
    <vehicle id="down_15" type="typeNS" route="down" depart="24" color="1,0,0"/>
    <vehicle id="southright_16" type="typeSE" route="southright" depart="27" />
</routes>
