<?xml version="1.0" encoding="UTF-8"?>

<!-- generated on 08/25/21 10:55:18 by Eclipse SUMO netgenerate Version 1.8.0
<configuration xmlns:xsi="http://www.w3.org/2001/XMLSchema-instance" xsi:noNamespaceSchemaLocation="http://sumo.dlr.de/xsd/netgenerateConfiguration.xsd">

    <random_network>
        <rand value="true"/>
        <rand.iterations value="30"/>
        <rand.random-lanenumber value="true"/>
    </random_network>

    <output>
        <output-file value="rand30.net.xml"/>
    </output>

    <building_defaults>
        <default.lanenumber value="3"/>
        <default-junction-type value="traffic_light"/>
    </building_defaults>

    <junctions>
        <no-turnarounds value="true"/>
    </junctions>

</configuration>
-->

<net version="1.6" junctionCornerDetail="5" limitTurnSpeed="5.50" xmlns:xsi="http://www.w3.org/2001/XMLSchema-instance" xsi:noNamespaceSchemaLocation="http://sumo.dlr.de/xsd/net_file.xsd">

    <location netOffset="354.42,565.34" convBoundary="0.00,0.00,1071.94,988.89" origBoundary="-354.42,-565.34,717.52,423.55" projParameter="!"/>

    <edge id=":1_0" function="internal">
        <lane id=":1_0_0" index="0" speed="6.47" length="10.87" shape="352.99,575.94 352.56,572.36 351.42,570.06 349.57,569.05 346.99,569.32"/>
    </edge>
    <edge id=":1_1" function="internal">
        <lane id=":1_1_0" index="0" speed="13.89" length="19.88" shape="352.99,575.94 352.74,571.44 352.20,566.04 351.44,560.66 350.59,556.23"/>
    </edge>
    <edge id=":1_2" function="internal">
        <lane id=":1_2_0" index="0" speed="8.58" length="6.91" shape="352.99,575.94 353.48,570.60 354.11,569.18"/>
    </edge>
    <edge id=":1_12" function="internal">
        <lane id=":1_12_0" index="0" speed="8.58" length="10.24" shape="354.11,569.18 355.15,566.83 358.00,564.64 362.02,564.02"/>
    </edge>
    <edge id=":1_3" function="internal">
        <lane id=":1_3_0" index="0" speed="6.39" length="9.04" shape="361.78,570.42 359.30,570.68 357.54,571.68 356.50,573.42 356.19,575.89"/>
    </edge>
    <edge id=":1_4" function="internal">
        <lane id=":1_4_0" index="0" speed="13.89" length="14.94" shape="361.78,570.42 357.02,569.92 353.40,569.21 350.28,568.83 346.99,569.32"/>
    </edge>
    <edge id=":1_5" function="internal">
        <lane id=":1_5_0" index="0" speed="9.75" length="5.46" shape="361.90,567.22 357.91,566.41 356.75,565.65"/>
    </edge>
    <edge id=":1_13" function="internal">
        <lane id=":1_13_0" index="0" speed="9.75" length="11.61" shape="356.75,565.65 354.70,564.31 352.25,560.92 350.59,556.23"/>
    </edge>
    <edge id=":1_6" function="internal">
        <lane id=":1_6_0" index="0" speed="7.86" length="10.79" shape="353.70,555.48 354.68,557.72 356.42,559.35 358.91,560.39 362.14,560.83"/>
    </edge>
    <edge id=":1_7" function="internal">
        <lane id=":1_7_0" index="0" speed="13.89" length="20.58" shape="353.70,555.48 354.57,560.02 355.35,565.64 355.93,571.28 356.19,575.89"/>
    </edge>
    <edge id=":1_8" function="internal">
        <lane id=":1_8_0" index="0" speed="8.99" length="8.39" shape="353.70,555.48 354.26,560.45 353.49,563.75"/>
    </edge>
    <edge id=":1_14" function="internal">
        <lane id=":1_14_0" index="0" speed="8.99" length="8.88" shape="353.49,563.75 353.34,564.41 350.91,567.37 346.99,569.32"/>
    </edge>
    <edge id=":1_9" function="internal">
        <lane id=":1_9_0" index="0" speed="7.68" length="12.35" shape="346.04,566.26 348.75,564.88 350.41,562.75 351.03,559.87 350.59,556.23"/>
    </edge>
    <edge id=":1_10" function="internal">
        <lane id=":1_10_0" index="0" speed="13.89" length="16.24" shape="346.04,566.26 349.42,565.24 352.80,564.47 356.80,564.04 362.02,564.02"/>
    </edge>
    <edge id=":1_11" function="internal">
        <lane id=":1_11_0" index="0" speed="7.98" length="8.47" shape="346.04,566.26 350.41,565.71 353.55,567.13 353.86,567.67"/>
    </edge>
    <edge id=":1_15" function="internal">
        <lane id=":1_15_0" index="0" speed="7.98" length="8.70" shape="353.86,567.67 355.48,570.52 356.19,575.89"/>
    </edge>
    <edge id=":115_0" function="internal">
        <lane id=":115_0_0" index="0" speed="5.67" length="9.24" shape="526.13,264.45 524.57,262.15 522.93,261.31 521.19,261.94 519.36,264.02"/>
    </edge>
    <edge id=":115_1" function="internal">
        <lane id=":115_1_0" index="0" speed="13.89" length="23.94" shape="528.99,263.02 525.51,257.28 521.45,252.83 516.79,249.66 511.55,247.79"/>
    </edge>
    <edge id=":115_2" function="internal">
        <lane id=":115_2_0" index="0" speed="13.89" length="28.22" shape="512.24,244.67 519.86,247.01 526.15,250.38 531.10,254.76 534.72,260.16"/>
    </edge>
    <edge id=":115_3" function="internal">
        <lane id=":115_3_0" index="0" speed="8.92" length="9.49" shape="512.24,244.67 517.81,246.94 519.81,249.78"/>
    </edge>
    <edge id=":115_6" function="internal">
        <lane id=":115_6_0" index="0" speed="8.92" length="13.47" shape="519.81,249.78 520.41,250.62 520.04,255.73 516.70,262.24"/>
    </edge>
    <edge id=":115_4" function="internal">
        <lane id=":115_4_0" index="0" speed="6.89" length="13.16" shape="511.38,258.69 513.77,254.44 514.60,251.20 513.86,248.99 511.55,247.79"/>
    </edge>
    <edge id=":115_5" function="internal">
        <lane id=":115_5_0" index="0" speed="8.81" length="24.31" shape="514.04,260.47 518.86,254.99 523.43,253.35 527.76,255.55 531.86,261.59"/>
    </edge>
    <edge id=":118_0" function="internal">
        <lane id=":118_0_0" index="0" speed="13.89" length="26.44" shape="133.95,244.61 127.18,246.44 120.76,247.20 114.23,247.22 107.17,246.82"/>
        <lane id=":118_0_1" index="1" speed="13.89" length="26.44" shape="132.89,241.59 126.32,243.39 120.34,244.10 114.25,244.06 107.38,243.63"/>
    </edge>
    <edge id=":118_2" function="internal">
        <lane id=":118_2_0" index="0" speed="11.13" length="6.37" shape="132.89,241.59 127.98,242.17 126.64,241.68"/>
    </edge>
    <edge id=":118_9" function="internal">
        <lane id=":118_9_0" index="0" speed="11.13" length="17.66" shape="126.64,241.68 123.19,240.43 118.53,236.38 113.98,230.02"/>
    </edge>
    <edge id=":118_3" function="internal">
        <lane id=":118_3_0" index="0" speed="8.96" length="15.29" shape="119.48,226.74 122.54,231.25 125.45,234.22 128.20,235.65 130.78,235.55"/>
    </edge>
    <edge id=":118_4" function="internal">
        <lane id=":118_4_0" index="0" speed="10.10" length="19.65" shape="116.73,228.38 120.54,233.82 124.32,237.33 128.09,238.91 131.84,238.57"/>
    </edge>
    <edge id=":118_5" function="internal">
        <lane id=":118_5_0" index="0" speed="8.82" length="25.51" shape="116.73,228.38 119.84,235.54 119.32,240.46 115.17,243.16 107.38,243.63"/>
    </edge>
    <edge id=":118_6" function="internal">
        <lane id=":118_6_0" index="0" speed="5.59" length="9.34" shape="107.81,237.25 110.66,237.07 112.18,236.09 112.37,234.28 111.23,231.66"/>
    </edge>
    <edge id=":118_7" function="internal">
        <lane id=":118_7_0" index="0" speed="13.89" length="23.90" shape="107.81,237.25 114.28,237.73 119.50,237.88 124.61,237.30 130.78,235.55"/>
        <lane id=":118_7_1" index="1" speed="13.89" length="23.90" shape="107.60,240.44 114.27,240.89 119.92,240.99 125.47,240.34 131.84,238.57"/>
    </edge>
    <edge id=":12_0" function="internal">
        <lane id=":12_0_0" index="0" speed="13.89" length="26.15" shape="438.28,404.07 434.59,399.98 429.04,394.76 423.17,389.95 418.55,387.08"/>
    </edge>
    <edge id=":12_1" function="internal">
        <lane id=":12_1_0" index="0" speed="13.89" length="30.90" shape="438.28,404.07 434.90,398.83 430.24,390.87 425.81,382.79 423.10,377.19"/>
    </edge>
    <edge id=":12_2" function="internal">
        <lane id=":12_2_0" index="0" speed="13.89" length="10.34" shape="438.28,404.07 434.47,396.60 434.28,394.65"/>
    </edge>
    <edge id=":12_3" function="internal">
        <lane id=":12_3_0" index="0" speed="9.59" length="8.08" shape="438.28,404.07 435.29,397.12 435.43,396.62"/>
    </edge>
    <edge id=":12_20" function="internal">
        <lane id=":12_20_0" index="0" speed="13.89" length="26.23" shape="434.28,394.65 433.65,388.43 435.80,379.56 440.93,370.00"/>
    </edge>
    <edge id=":12_21" function="internal">
        <lane id=":12_21_0" index="0" speed="9.59" length="20.59" shape="435.43,396.62 436.93,391.49 442.29,387.42 450.48,385.10"/>
    </edge>
    <edge id=":12_4" function="internal">
        <lane id=":12_4_0" index="0" speed="7.29" length="15.96" shape="451.87,394.60 445.55,395.90 441.61,397.59 440.04,399.68 440.85,402.16"/>
    </edge>
    <edge id=":12_5" function="internal">
        <lane id=":12_5_0" index="0" speed="13.89" length="33.48" shape="451.41,391.43 440.67,391.93 431.16,390.77 423.56,388.85 418.55,387.08"/>
    </edge>
    <edge id=":12_6" function="internal">
        <lane id=":12_6_0" index="0" speed="13.00" length="20.17" shape="450.94,388.27 440.83,388.80 432.82,387.13 431.26,386.12"/>
    </edge>
    <edge id=":12_7" function="internal">
        <lane id=":12_7_0" index="0" speed="8.83" length="11.13" shape="450.94,388.27 443.64,387.47 440.87,384.89"/>
    </edge>
    <edge id=":12_22" function="internal">
        <lane id=":12_22_0" index="0" speed="13.00" length="12.38" shape="431.26,386.12 426.91,383.26 423.10,377.19"/>
    </edge>
    <edge id=":12_23" function="internal">
        <lane id=":12_23_0" index="0" speed="8.83" length="16.21" shape="440.87,384.89 439.23,383.37 438.17,377.15 440.93,370.00"/>
    </edge>
    <edge id=":12_8" function="internal">
        <lane id=":12_8_0" index="0" speed="5.50" length="9.60" shape="446.25,373.55 444.87,376.25 444.97,378.02 446.52,378.86 449.55,378.77"/>
    </edge>
    <edge id=":12_9" function="internal">
        <lane id=":12_9_0" index="0" speed="13.42" length="30.87" shape="446.25,373.55 441.18,382.43 438.59,390.15 438.48,396.73 440.85,402.16"/>
    </edge>
    <edge id=":12_10" function="internal">
        <lane id=":12_10_0" index="0" speed="12.75" length="31.59" shape="443.59,371.77 437.03,380.22 430.67,385.58 424.51,387.87 418.55,387.08"/>
    </edge>
    <edge id=":12_11" function="internal">
        <lane id=":12_11_0" index="0" speed="9.08" length="27.32" shape="443.59,371.77 438.22,378.30 432.48,382.27 427.16,382.35 423.10,377.19"/>
    </edge>
    <edge id=":12_12" function="internal">
        <lane id=":12_12_0" index="0" speed="7.36" length="17.43" shape="426.09,376.04 427.80,378.03 430.40,377.39 433.89,374.12 438.26,368.22"/>
    </edge>
    <edge id=":12_13" function="internal">
        <lane id=":12_13_0" index="0" speed="11.73" length="26.33" shape="426.09,376.04 428.87,379.75 433.78,381.96 440.83,382.69 450.01,381.93"/>
    </edge>
    <edge id=":12_14" function="internal">
        <lane id=":12_14_0" index="0" speed="13.89" length="30.03" shape="426.09,376.04 428.73,381.52 433.02,389.34 437.53,397.04 440.85,402.16"/>
    </edge>
    <edge id=":12_15" function="internal">
        <lane id=":12_15_0" index="0" speed="7.72" length="7.58" shape="426.09,376.04 428.00,382.94 427.94,383.35"/>
    </edge>
    <edge id=":12_24" function="internal">
        <lane id=":12_24_0" index="0" speed="7.72" length="13.06" shape="427.94,383.35 427.39,387.08 424.24,388.46 418.55,387.08"/>
    </edge>
    <edge id=":12_16" function="internal">
        <lane id=":12_16_0" index="0" speed="5.94" length="11.52" shape="419.73,384.11 422.61,384.73 424.13,383.79 424.29,381.27 423.10,377.19"/>
    </edge>
    <edge id=":12_17" function="internal">
        <lane id=":12_17_0" index="0" speed="11.50" length="25.57" shape="419.73,384.11 423.24,384.05 427.50,381.38 432.51,376.11 438.26,368.22"/>
    </edge>
    <edge id=":12_18" function="internal">
        <lane id=":12_18_0" index="0" speed="13.89" length="30.53" shape="419.73,384.11 424.34,384.85 431.05,384.53 439.67,383.45 450.01,381.93"/>
    </edge>
    <edge id=":12_19" function="internal">
        <lane id=":12_19_0" index="0" speed="13.89" length="6.42" shape="419.73,384.11 424.57,387.14 425.12,387.59"/>
    </edge>
    <edge id=":12_25" function="internal">
        <lane id=":12_25_0" index="0" speed="13.89" length="21.47" shape="425.12,387.59 430.91,392.32 436.94,397.91 440.85,402.16"/>
    </edge>
    <edge id=":122_0" function="internal">
        <lane id=":122_0_0" index="0" speed="6.55" length="7.91" shape="800.07,362.25 797.95,362.23 796.22,362.84 794.89,364.10 793.95,366.00"/>
    </edge>
    <edge id=":122_1" function="internal">
        <lane id=":122_1_0" index="0" speed="10.90" length="19.78" shape="800.54,359.08 798.25,357.74 796.11,354.42 794.11,349.12 792.25,341.84"/>
    </edge>
    <edge id=":122_2" function="internal">
        <lane id=":122_2_0" index="0" speed="7.65" length="9.36" shape="795.38,341.17 796.17,343.13 797.61,344.66 799.69,345.75 802.41,346.42"/>
    </edge>
    <edge id=":122_3" function="internal">
        <lane id=":122_3_0" index="0" speed="13.89" length="24.99" shape="795.38,341.17 795.83,346.44 795.66,353.64 794.99,360.81 793.95,366.00"/>
    </edge>
    <edge id=":122_4" function="internal">
        <lane id=":122_4_0" index="0" speed="13.89" length="23.29" shape="790.91,364.98 791.95,360.05 792.58,353.47 792.71,346.85 792.25,341.84"/>
    </edge>
    <edge id=":122_5" function="internal">
        <lane id=":122_5_0" index="0" speed="10.07" length="7.56" shape="790.91,364.98 793.65,357.93"/>
    </edge>
    <edge id=":122_6" function="internal">
        <lane id=":122_6_0" index="0" speed="9.42" length="6.78" shape="790.91,364.98 793.23,359.29 793.58,358.76"/>
    </edge>
    <edge id=":122_7" function="internal">
        <lane id=":122_7_0" index="0" speed="10.07" length="12.40" shape="793.65,357.93 796.40,353.02 799.17,350.24 801.94,349.58"/>
    </edge>
    <edge id=":122_8" function="internal">
        <lane id=":122_8_0" index="0" speed="9.42" length="10.54" shape="793.58,358.76 795.77,355.35 798.51,353.17 801.47,352.75"/>
    </edge>
    <edge id=":124_0" function="internal">
        <lane id=":124_0_0" index="0" speed="9.15" length="16.94" shape="880.39,645.14 878.15,643.76 874.81,643.84 870.37,645.37 864.85,648.34"/>
    </edge>
    <edge id=":124_1" function="internal">
        <lane id=":124_1_0" index="0" speed="13.89" length="22.56" shape="880.39,645.14 877.47,642.36 873.52,639.44 868.70,635.70 863.18,630.49"/>
        <lane id=":124_1_1" index="1" speed="13.89" length="22.56" shape="880.39,645.14 865.51,628.29"/>
    </edge>
    <edge id=":124_3" function="internal">
        <lane id=":124_3_0" index="0" speed="13.89" length="24.02" shape="872.49,621.70 877.12,628.15 879.57,634.20 881.08,639.35 882.88,643.12"/>
    </edge>
    <edge id=":124_4" function="internal">
        <lane id=":124_4_0" index="0" speed="9.57" length="7.49" shape="867.83,626.09 871.30,631.28 871.39,632.53"/>
    </edge>
    <edge id=":124_7" function="internal">
        <lane id=":124_7_0" index="0" speed="9.57" length="16.60" shape="871.39,632.53 871.68,636.27 868.97,641.04 863.18,645.61"/>
    </edge>
    <edge id=":124_5" function="internal">
        <lane id=":124_5_0" index="0" speed="6.10" length="9.06" shape="859.86,640.14 861.83,638.51 862.66,636.72 862.33,634.78 860.86,632.69"/>
    </edge>
    <edge id=":124_6" function="internal">
        <lane id=":124_6_0" index="0" speed="10.71" length="23.53" shape="861.52,642.87 868.17,639.65 873.94,638.62 878.85,639.78 882.88,643.12"/>
    </edge>
    <edge id=":127_0" function="internal">
        <lane id=":127_0_0" index="0" speed="13.89" length="12.31" shape="707.33,865.98 704.21,867.21 701.67,868.47 699.40,870.13 697.13,872.54"/>
    </edge>
    <edge id=":127_1" function="internal">
        <lane id=":127_1_0" index="0" speed="7.67" length="5.48" shape="707.33,865.98 703.17,866.92 701.99,866.64"/>
    </edge>
    <edge id=":127_6" function="internal">
        <lane id=":127_6_0" index="0" speed="7.67" length="9.60" shape="701.99,866.64 699.99,866.18 697.78,863.77 696.54,859.69"/>
    </edge>
    <edge id=":127_2" function="internal">
        <lane id=":127_2_0" index="0" speed="6.09" length="9.06" shape="699.70,859.21 700.45,861.66 701.78,863.11 703.69,863.55 706.19,862.99"/>
    </edge>
    <edge id=":127_3" function="internal">
        <lane id=":127_3_0" index="0" speed="11.75" length="13.96" shape="699.70,859.21 700.03,863.26 699.71,866.83 698.74,869.92 697.13,872.54"/>
    </edge>
    <edge id=":127_4" function="internal">
        <lane id=":127_4_0" index="0" speed="10.61" length="11.29" shape="694.65,870.51 695.89,868.47 696.61,865.98 696.83,863.06 696.54,859.69"/>
    </edge>
    <edge id=":127_5" function="internal">
        <lane id=":127_5_0" index="0" speed="13.89" length="13.95" shape="694.65,870.51 697.13,867.95 699.86,865.97 702.86,864.37 706.19,862.99"/>
    </edge>
    <edge id=":137_0" function="internal">
        <lane id=":137_0_0" index="0" speed="13.89" length="46.23" shape="527.54,871.14 516.42,877.07 505.52,879.22 494.86,877.60 484.44,872.20"/>
    </edge>
    <edge id=":137_1" function="internal">
        <lane id=":137_1_0" index="0" speed="13.89" length="42.29" shape="525.71,868.51 515.51,873.96 505.54,875.96 495.79,874.50 486.29,869.59"/>
    </edge>
    <edge id=":137_2" function="internal">
        <lane id=":137_2_0" index="0" speed="9.95" length="10.32" shape="523.89,865.89 514.85,869.57 514.30,869.48"/>
    </edge>
    <edge id=":137_3" function="internal">
        <lane id=":137_3_0" index="0" speed="9.41" length="9.12" shape="523.89,865.89 515.94,869.00 515.37,868.88"/>
    </edge>
    <edge id=":137_10" function="internal">
        <lane id=":137_10_0" index="0" speed="9.95" length="24.60" shape="514.30,869.48 506.94,868.32 501.62,862.74 500.35,853.39"/>
    </edge>
    <edge id=":137_11" function="internal">
        <lane id=":137_11_0" index="0" speed="9.41" length="21.94" shape="515.37,868.88 509.10,867.54 504.57,862.22 503.53,853.74"/>
    </edge>
    <edge id=":137_4" function="internal">
        <lane id=":137_4_0" index="0" speed="5.51" length="9.56" shape="513.07,854.82 513.09,857.83 513.98,859.36 515.76,859.42 518.41,858.00"/>
    </edge>
    <edge id=":137_5" function="internal">
        <lane id=":137_5_0" index="0" speed="11.15" length="39.49" shape="509.89,854.46 507.08,865.86 501.72,873.49 494.08,876.04 484.44,872.20"/>
    </edge>
    <edge id=":137_6" function="internal">
        <lane id=":137_6_0" index="0" speed="10.17" length="32.62" shape="506.71,854.10 504.48,863.65 500.26,870.23 494.16,872.63 486.29,869.59"/>
    </edge>
    <edge id=":137_7" function="internal">
        <lane id=":137_7_0" index="0" speed="7.29" length="16.05" shape="489.98,864.36 492.48,865.11 494.51,863.46 496.08,859.44 497.17,853.03"/>
    </edge>
    <edge id=":137_8" function="internal">
        <lane id=":137_8_0" index="0" speed="13.81" length="32.55" shape="489.98,864.36 496.50,867.40 503.71,867.79 511.63,865.54 520.23,860.63"/>
    </edge>
    <edge id=":137_9" function="internal">
        <lane id=":137_9_0" index="0" speed="13.89" length="36.48" shape="488.13,866.98 495.57,870.50 503.70,871.06 512.53,868.64 522.06,863.26"/>
    </edge>
    <edge id=":14_0" function="internal">
        <lane id=":14_0_0" index="0" speed="8.88" length="16.64" shape="242.87,221.39 240.06,215.89 237.32,212.22 234.63,210.38 232.02,210.36"/>
    </edge>
    <edge id=":14_1" function="internal">
        <lane id=":14_1_0" index="0" speed="10.01" length="21.37" shape="245.80,220.10 242.29,213.47 238.65,209.14 234.87,207.10 230.96,207.34"/>
    </edge>
    <edge id=":14_2" function="internal">
        <lane id=":14_2_0" index="0" speed="9.77" length="30.01" shape="245.80,220.10 243.43,211.62 244.37,204.74 248.74,200.30 256.70,199.19"/>
    </edge>
    <edge id=":14_3" function="internal">
        <lane id=":14_3_0" index="0" speed="9.18" length="26.31" shape="245.80,220.10 243.89,212.76 245.08,206.94 249.29,203.26 256.43,202.38"/>
    </edge>
    <edge id=":14_4" function="internal">
        <lane id=":14_4_0" index="0" speed="5.69" length="9.22" shape="255.61,211.94 252.86,212.08 251.28,213.05 250.88,214.86 251.65,217.50"/>
    </edge>
    <edge id=":14_5" function="internal">
        <lane id=":14_5_0" index="0" speed="13.89" length="24.87" shape="255.89,208.76 248.46,208.11 243.02,207.94 238.05,208.58 232.02,210.36"/>
        <lane id=":14_5_1" index="1" speed="13.89" length="24.87" shape="256.16,205.57 248.24,204.93 242.38,204.82 237.11,205.52 230.96,207.34"/>
    </edge>
    <edge id=":14_7" function="internal">
        <lane id=":14_7_0" index="0" speed="13.89" length="28.29" shape="228.85,201.30 235.22,198.91 241.11,196.96 247.89,195.85 256.97,196.00"/>
        <lane id=":14_7_1" index="1" speed="13.89" length="28.29" shape="229.91,204.32 236.17,201.97 241.75,200.08 248.11,199.04 256.70,199.19"/>
    </edge>
    <edge id=":14_9" function="internal">
        <lane id=":14_9_0" index="0" speed="11.02" length="6.14" shape="229.91,204.32 235.11,203.82 235.94,204.20"/>
    </edge>
    <edge id=":14_10" function="internal">
        <lane id=":14_10_0" index="0" speed="11.02" length="20.01" shape="235.94,204.20 239.98,206.07 244.52,211.06 248.73,218.80"/>
    </edge>
    <edge id=":18_0" function="internal">
        <lane id=":18_0_0" index="0" speed="8.38" length="11.19" shape="748.35,513.64 746.39,512.20 743.99,511.57 741.15,511.75 737.88,512.75"/>
    </edge>
    <edge id=":18_1" function="internal">
        <lane id=":18_1_0" index="0" speed="13.89" length="26.97" shape="750.68,511.44 744.54,504.58 739.78,498.81 736.02,494.29 732.91,491.17"/>
    </edge>
    <edge id=":18_2" function="internal">
        <lane id=":18_2_0" index="0" speed="12.64" length="11.71" shape="753.00,509.24 749.83,504.75 748.21,499.62 748.20,498.79"/>
    </edge>
    <edge id=":18_12" function="internal">
        <lane id=":18_12_0" index="0" speed="12.64" length="11.47" shape="748.20,498.79 748.13,493.87 749.62,487.49"/>
    </edge>
    <edge id=":18_3" function="internal">
        <lane id=":18_3_0" index="0" speed="10.72" length="16.50" shape="752.65,488.51 752.51,491.16 753.69,494.40 756.18,498.23 759.98,502.65"/>
    </edge>
    <edge id=":18_4" function="internal">
        <lane id=":18_4_0" index="0" speed="13.89" length="27.37" shape="752.65,488.51 749.48,496.28 745.76,502.41 741.50,506.92 736.68,509.78"/>
    </edge>
    <edge id=":18_5" function="internal">
        <lane id=":18_5_0" index="0" speed="9.33" length="12.04" shape="752.65,488.51 749.56,494.18 745.24,496.51 744.57,496.39"/>
    </edge>
    <edge id=":18_13" function="internal">
        <lane id=":18_13_0" index="0" speed="9.33" length="13.01" shape="744.57,496.39 739.69,495.50 732.91,491.17"/>
    </edge>
    <edge id=":18_6" function="internal">
        <lane id=":18_6_0" index="0" speed="8.08" length="18.42" shape="734.93,488.68 740.05,492.02 744.21,492.94 747.40,491.42 749.62,487.49"/>
    </edge>
    <edge id=":18_7" function="internal">
        <lane id=":18_7_0" index="0" speed="13.89" length="28.00" shape="734.93,488.68 738.77,491.11 744.15,494.15 750.61,498.49 757.66,504.85"/>
    </edge>
    <edge id=":18_8" function="internal">
        <lane id=":18_8_0" index="0" speed="8.82" length="13.69" shape="734.93,488.68 740.63,494.42 742.62,499.35 742.51,499.61"/>
    </edge>
    <edge id=":18_14" function="internal">
        <lane id=":18_14_0" index="0" speed="8.82" length="10.56" shape="742.51,499.61 740.91,503.48 735.48,506.82"/>
    </edge>
    <edge id=":18_9" function="internal">
        <lane id=":18_9_0" index="0" speed="5.69" length="9.22" shape="731.90,497.91 734.29,496.55 735.26,494.97 734.80,493.18 732.91,491.17"/>
    </edge>
    <edge id=":18_10" function="internal">
        <lane id=":18_10_0" index="0" speed="13.89" length="21.86" shape="733.09,500.88 739.34,497.94 744.17,494.73 747.60,491.25 749.62,487.49"/>
    </edge>
    <edge id=":18_11" function="internal">
        <lane id=":18_11_0" index="0" speed="11.75" length="9.87" shape="734.29,503.85 740.50,502.07 743.91,502.04"/>
    </edge>
    <edge id=":18_15" function="internal">
        <lane id=":18_15_0" index="0" speed="11.75" length="12.85" shape="743.91,502.04 746.07,502.02 751.02,503.67 755.33,507.04"/>
    </edge>
    <edge id=":2_0" function="internal">
        <lane id=":2_0_0" index="0" speed="13.89" length="11.92" shape="300.68,348.41 299.59,345.53 298.13,343.52 296.44,341.42 294.65,338.22"/>
    </edge>
    <edge id=":2_1" function="internal">
        <lane id=":2_1_0" index="0" speed="7.38" length="7.23" shape="300.68,348.41 300.10,343.08 300.84,341.36"/>
    </edge>
    <edge id=":2_6" function="internal">
        <lane id=":2_6_0" index="0" speed="7.38" length="10.28" shape="300.84,341.36 301.44,339.97 304.71,339.08 309.91,340.42"/>
    </edge>
    <edge id=":2_2" function="internal">
        <lane id=":2_2_0" index="0" speed="5.58" length="9.36" shape="308.73,343.39 305.95,342.68 304.20,343.15 303.48,344.81 303.80,347.66"/>
    </edge>
    <edge id=":2_3" function="internal">
        <lane id=":2_3_0" index="0" speed="12.21" length="13.50" shape="308.73,343.39 305.39,342.43 302.39,341.68 299.77,340.16 297.58,336.93"/>
    </edge>
    <edge id=":2_4" function="internal">
        <lane id=":2_4_0" index="0" speed="10.19" length="9.28" shape="303.43,334.34 304.62,336.77 305.80,338.28 307.41,339.35 309.91,340.42"/>
    </edge>
    <edge id=":2_5" function="internal">
        <lane id=":2_5_0" index="0" speed="13.89" length="12.51" shape="300.50,335.63 301.92,339.23 302.66,341.96 303.14,344.53 303.80,347.66"/>
    </edge>
    <edge id=":209_0" function="internal">
        <lane id=":209_0_0" index="0" speed="13.89" length="30.45" shape="824.65,826.58 815.15,830.33 806.69,831.62 799.81,831.86 795.06,832.52"/>
    </edge>
    <edge id=":209_1" function="internal">
        <lane id=":209_1_0" index="0" speed="13.89" length="14.42" shape="823.10,823.79 817.50,825.74 811.09,825.84 809.06,825.35"/>
    </edge>
    <edge id=":209_2" function="internal">
        <lane id=":209_2_0" index="0" speed="13.89" length="6.96" shape="821.54,820.99 816.71,822.63 814.85,822.62"/>
    </edge>
    <edge id=":209_9" function="internal">
        <lane id=":209_9_0" index="0" speed="13.89" length="14.15" shape="809.06,825.35 803.87,824.09 795.83,820.49"/>
    </edge>
    <edge id=":209_10" function="internal">
        <lane id=":209_10_0" index="0" speed="13.89" length="18.42" shape="814.85,822.62 811.07,822.62 804.62,820.96 797.35,817.67"/>
    </edge>
    <edge id=":209_3" function="internal">
        <lane id=":209_3_0" index="0" speed="11.07" length="15.85" shape="801.89,809.21 806.85,811.58 811.00,812.94 814.34,813.28 816.88,812.60"/>
    </edge>
    <edge id=":209_4" function="internal">
        <lane id=":209_4_0" index="0" speed="12.09" length="19.02" shape="800.37,812.03 806.10,814.71 811.02,816.16 815.13,816.39 818.43,815.40"/>
    </edge>
    <edge id=":209_5" function="internal">
        <lane id=":209_5_0" index="0" speed="8.29" length="23.65" shape="798.86,814.85 803.32,819.11 803.80,824.12 800.86,828.91 795.06,832.52"/>
    </edge>
    <edge id=":209_6" function="internal">
        <lane id=":209_6_0" index="0" speed="5.51" length="9.55" shape="793.92,829.53 796.57,828.14 797.53,826.64 796.77,825.02 794.32,823.31"/>
    </edge>
    <edge id=":209_7" function="internal">
        <lane id=":209_7_0" index="0" speed="13.89" length="28.38" shape="793.92,829.53 797.98,827.53 803.29,824.37 810.04,820.25 818.43,815.40"/>
        <lane id=":209_7_1" index="1" speed="13.89" length="28.38" shape="793.92,829.53 798.22,827.98 804.05,825.78 811.33,822.63 819.99,818.19"/>
    </edge>
    <edge id=":24_0" function="internal">
        <lane id=":24_0_0" index="0" speed="6.15" length="10.75" shape="683.26,772.41 682.36,768.88 680.94,766.89 679.00,766.45 676.56,767.55"/>
    </edge>
    <edge id=":24_1" function="internal">
        <lane id=":24_1_0" index="0" speed="13.89" length="30.60" shape="683.26,772.41 681.79,766.39 679.08,757.67 676.01,749.09 673.44,743.49"/>
    </edge>
    <edge id=":24_2" function="internal">
        <lane id=":24_2_0" index="0" speed="13.89" length="7.03" shape="683.26,772.41 683.10,765.37"/>
    </edge>
    <edge id=":24_3" function="internal">
        <lane id=":24_3_0" index="0" speed="8.54" length="5.51" shape="683.26,772.41 683.53,766.90"/>
    </edge>
    <edge id=":24_22" function="internal">
        <lane id=":24_22_0" index="0" speed="13.89" length="27.94" shape="683.10,765.37 683.05,763.34 685.33,755.38 690.11,748.53 697.39,742.78"/>
    </edge>
    <edge id=":24_23" function="internal">
        <lane id=":24_23_0" index="0" speed="8.54" length="18.83" shape="683.53,766.90 683.59,765.53 686.54,760.81 691.50,758.95 697.87,760.64"/>
    </edge>
    <edge id=":24_4" function="internal">
        <lane id=":24_4_0" index="0" speed="5.87" length="10.69" shape="693.33,769.09 689.91,767.66 687.61,767.66 686.45,769.08 686.43,771.93"/>
    </edge>
    <edge id=":24_5" function="internal">
        <lane id=":24_5_0" index="0" speed="11.57" length="19.74" shape="693.33,769.09 686.97,766.04 681.74,764.33 677.67,763.95 674.74,764.92"/>
    </edge>
    <edge id=":24_6" function="internal">
        <lane id=":24_6_0" index="0" speed="13.89" length="31.68" shape="694.85,766.27 686.31,760.31 680.20,753.80 676.07,747.83 673.44,743.49"/>
    </edge>
    <edge id=":24_7" function="internal">
        <lane id=":24_7_0" index="0" speed="9.14" length="26.46" shape="696.36,763.45 690.86,758.77 689.39,753.32 691.66,747.77 697.39,742.78"/>
    </edge>
    <edge id=":24_8" function="internal">
        <lane id=":24_8_0" index="0" speed="5.66" length="9.25" shape="700.72,748.25 698.55,750.00 697.86,751.70 698.64,753.37 700.90,755.00"/>
    </edge>
    <edge id=":24_9" function="internal">
        <lane id=":24_9_0" index="0" speed="13.47" length="29.38" shape="700.72,748.25 693.68,753.47 688.96,759.15 686.54,765.30 686.43,771.93"/>
    </edge>