<?xml version="1.0" encoding="UTF-8"?>

<!-- generated on Mon Aug 24 13:18:21 2020 by Eclipse SUMO netedit Version c200fae3
<configuration xmlns:xsi="http://www.w3.org/2001/XMLSchema-instance" xsi:noNamespaceSchemaLocation="http://sumo.dlr.de/xsd/netconvertConfiguration.xsd">

    <input>
        <sumo-net-file value="doubleintersect.net.xml"/>
    </input>

    <output>
        <output-file value="doubleintersect.net.xml"/>
    </output>

    <processing>
        <geometry.min-radius.fix.railways value="false"/>
        <geometry.max-grade.fix value="false"/>
        <offset.disable-normalization value="true"/>
        <lefthand value="false"/>
    </processing>

    <junctions>
        <no-turnarounds value="true"/>
        <junctions.corner-detail value="5"/>
        <junctions.limit-turn-speed value="5.5"/>
        <rectangular-lane-cut value="false"/>
    </junctions>

    <pedestrian>
        <walkingareas value="false"/>
    </pedestrian>

    <report>
        <aggregate-warnings value="5"/>
    </report>

</configuration>
-->

<net version="1.6" junctionCornerDetail="5" limitTurnSpeed="5.50" xmlns:xsi="http://www.w3.org/2001/XMLSchema-instance" xsi:noNamespaceSchemaLocation="http://sumo.dlr.de/xsd/net_file.xsd">

    <location netOffset="0.00,0.00" convBoundary="-100.00,200.00,200.00,400.00" origBoundary="-10000000000.00,-10000000000.00,10000000000.00,10000000000.00" projParameter="!"/>

    <edge id=":gneJ11_0" function="internal">
        <lane id=":gneJ11_0_0" index="0" speed="8.96" length="18.06" shape="-4.80,206.40 -4.10,201.50 -2.00,198.00 1.50,195.90 6.40,195.20"/>
    </edge>
    <edge id=":gneJ11_1" function="internal">
        <lane id=":gneJ11_1_0" index="0" speed="7.66" length="12.90" shape="-1.60,206.40 -1.10,202.90 0.40,200.40 2.90,198.90 6.40,198.40"/>
    </edge>
    <edge id=":gneJ11_2" function="internal">
        <lane id=":gneJ11_2_0" index="0" speed="3.90" length="2.58" shape="6.40,204.80 5.70,204.90 5.20,205.20 4.90,205.70 4.80,206.40"/>
    </edge>
    <edge id=":gneJ11_3" function="internal">
        <lane id=":gneJ11_3_0" index="0" speed="6.08" length="7.74" shape="6.40,201.60 4.30,201.90 2.80,202.80 1.90,204.30 1.60,206.40"/>
    </edge>
    <edge id=":gneJ12_0" function="internal">
        <lane id=":gneJ12_0_0" index="0" speed="6.51" length="9.03" shape="95.20,310.40 94.85,307.95 93.80,306.20 92.05,305.15 89.60,304.80"/>
    </edge>
    <edge id=":gneJ12_1" function="internal">
        <lane id=":gneJ12_1_0" index="0" speed="40.00" length="20.80" shape="95.20,310.40 95.20,289.60"/>
        <lane id=":gneJ12_1_1" index="1" speed="40.00" length="20.80" shape="98.40,310.40 98.40,289.60"/>
    </edge>
    <edge id=":gneJ12_3" function="internal">
        <lane id=":gneJ12_3_0" index="0" speed="9.26" length="6.96" shape="98.40,310.40 99.15,305.15 100.00,303.73"/>
    </edge>
    <edge id=":gneJ12_16" function="internal">
        <lane id=":gneJ12_16_0" index="0" speed="9.26" length="12.40" shape="100.00,303.73 101.40,301.40 105.15,299.15 110.40,298.40"/>
    </edge>
    <edge id=":gneJ12_4" function="internal">
        <lane id=":gneJ12_4_0" index="0" speed="6.51" length="9.03" shape="110.40,304.80 107.95,305.15 106.20,306.20 105.15,307.95 104.80,310.40"/>
    </edge>
    <edge id=":gneJ12_5" function="internal">
        <lane id=":gneJ12_5_0" index="0" speed="40.00" length="20.80" shape="110.40,304.80 89.60,304.80"/>
        <lane id=":gneJ12_5_1" index="1" speed="40.00" length="20.80" shape="110.40,301.60 89.60,301.60"/>
    </edge>
    <edge id=":gneJ12_7" function="internal">
        <lane id=":gneJ12_7_0" index="0" speed="9.26" length="6.96" shape="110.40,301.60 105.15,300.85 103.73,300.00"/>
    </edge>
    <edge id=":gneJ12_17" function="internal">
        <lane id=":gneJ12_17_0" index="0" speed="9.26" length="12.40" shape="103.73,300.00 101.40,298.60 99.15,294.85 98.40,289.60"/>
    </edge>
    <edge id=":gneJ12_8" function="internal">
        <lane id=":gneJ12_8_0" index="0" speed="6.51" length="9.03" shape="104.80,289.60 105.15,292.05 106.20,293.80 107.95,294.85 110.40,295.20"/>
    </edge>
    <edge id=":gneJ12_9" function="internal">
        <lane id=":gneJ12_9_0" index="0" speed="40.00" length="20.80" shape="104.80,289.60 104.80,310.40"/>
        <lane id=":gneJ12_9_1" index="1" speed="40.00" length="20.80" shape="101.60,289.60 101.60,310.40"/>
    </edge>
    <edge id=":gneJ12_11" function="internal">
        <lane id=":gneJ12_11_0" index="0" speed="9.26" length="6.96" shape="101.60,289.60 100.85,294.85 100.00,296.27"/>
    </edge>
    <edge id=":gneJ12_18" function="internal">
        <lane id=":gneJ12_18_0" index="0" speed="9.26" length="12.40" shape="100.00,296.27 98.60,298.60 94.85,300.85 89.60,301.60"/>
    </edge>
    <edge id=":gneJ12_12" function="internal">
        <lane id=":gneJ12_12_0" index="0" speed="6.51" length="9.03" shape="89.60,295.20 92.05,294.85 93.80,293.80 94.85,292.05 95.20,289.60"/>
    </edge>
    <edge id=":gneJ12_13" function="internal">
        <lane id=":gneJ12_13_0" index="0" speed="40.00" length="20.80" shape="89.60,295.20 110.40,295.20"/>
        <lane id=":gneJ12_13_1" index="1" speed="40.00" length="20.80" shape="89.60,298.40 110.40,298.40"/>
    </edge>
    <edge id=":gneJ12_15" function="internal">
        <lane id=":gneJ12_15_0" index="0" speed="9.26" length="6.96" shape="89.60,298.40 94.85,299.15 96.27,300.00"/>
    </edge>
    <edge id=":gneJ12_19" function="internal">
        <lane id=":gneJ12_19_0" index="0" speed="9.26" length="12.40" shape="96.27,300.00 98.60,301.40 100.85,305.15 101.60,310.40"/>
    </edge>
    <edge id=":gneJ13_0" function="internal">
        <lane id=":gneJ13_0_0" index="0" speed="8.96" length="18.06" shape="-104.80,306.40 -104.10,301.50 -102.00,298.00 -98.50,295.90 -93.60,295.20"/>
    </edge>
    <edge id=":gneJ13_1" function="internal">
        <lane id=":gneJ13_1_0" index="0" speed="7.66" length="12.90" shape="-101.60,306.40 -101.10,302.90 -99.60,300.40 -97.10,298.90 -93.60,298.40"/>
    </edge>
    <edge id=":gneJ13_2" function="internal">
        <lane id=":gneJ13_2_0" index="0" speed="3.90" length="2.58" shape="-93.60,304.80 -94.30,304.90 -94.80,305.20 -95.10,305.70 -95.20,306.40"/>
    </edge>
    <edge id=":gneJ13_3" function="internal">
        <lane id=":gneJ13_3_0" index="0" speed="6.08" length="7.74" shape="-93.60,301.60 -95.70,301.90 -97.20,302.80 -98.10,304.30 -98.40,306.40"/>
    </edge>
    <edge id=":gneJ14_0" function="internal">
        <lane id=":gneJ14_0_0" index="0" speed="8.96" length="18.06" shape="106.40,404.80 101.50,404.10 98.00,402.00 95.90,398.50 95.20,393.60"/>
    </edge>
    <edge id=":gneJ14_1" function="internal">
        <lane id=":gneJ14_1_0" index="0" speed="7.66" length="12.90" shape="106.40,401.60 102.90,401.10 100.40,399.60 98.90,397.10 98.40,393.60"/>
    </edge>
    <edge id=":gneJ14_2" function="internal">
        <lane id=":gneJ14_2_0" index="0" speed="3.90" length="2.58" shape="104.80,393.60 104.90,394.30 105.20,394.80 105.70,395.10 106.40,395.20"/>
    </edge>
    <edge id=":gneJ14_3" function="internal">
        <lane id=":gneJ14_3_0" index="0" speed="6.08" length="7.74" shape="101.60,393.60 101.90,395.70 102.80,397.20 104.30,398.10 106.40,398.40"/>
    </edge>
    <edge id=":gneJ15_0" function="internal">
        <lane id=":gneJ15_0_0" index="0" speed="3.90" length="2.58" shape="95.20,206.40 95.10,205.70 94.80,205.20 94.30,204.90 93.60,204.80"/>
    </edge>
    <edge id=":gneJ15_1" function="internal">
        <lane id=":gneJ15_1_0" index="0" speed="6.08" length="7.74" shape="98.40,206.40 98.10,204.30 97.20,202.80 95.70,201.90 93.60,201.60"/>
    </edge>
    <edge id=":gneJ15_2" function="internal">
        <lane id=":gneJ15_2_0" index="0" speed="8.96" length="18.06" shape="93.60,195.20 98.50,195.90 102.00,198.00 104.10,201.50 104.80,206.40"/>
    </edge>
    <edge id=":gneJ15_3" function="internal">
        <lane id=":gneJ15_3_0" index="0" speed="7.66" length="12.90" shape="93.60,198.40 97.10,198.90 99.60,200.40 101.10,202.90 101.60,206.40"/>
    </edge>
    <edge id=":gneJ16_0" function="internal">
        <lane id=":gneJ16_0_0" index="0" speed="3.90" length="2.58" shape="195.20,306.40 195.10,305.70 194.80,305.20 194.30,304.90 193.60,304.80"/>
    </edge>
    <edge id=":gneJ16_1" function="internal">
        <lane id=":gneJ16_1_0" index="0" speed="6.08" length="7.74" shape="198.40,306.40 198.10,304.30 197.20,302.80 195.70,301.90 193.60,301.60"/>
    </edge>
    <edge id=":gneJ16_2" function="internal">
        <lane id=":gneJ16_2_0" index="0" speed="8.96" length="18.06" shape="193.60,295.20 198.50,295.90 202.00,298.00 204.10,301.50 204.80,306.40"/>
    </edge>
    <edge id=":gneJ16_3" function="internal">
        <lane id=":gneJ16_3_0" index="0" speed="7.66" length="12.90" shape="193.60,298.40 197.10,298.90 199.60,300.40 201.10,302.90 201.60,306.40"/>
    </edge>
    <edge id=":gneJ17_0" function="internal">
        <lane id=":gneJ17_0_0" index="0" speed="8.96" length="18.06" shape="-93.60,404.80 -98.50,404.10 -102.00,402.00 -104.10,398.50 -104.80,393.60"/>
    </edge>
    <edge id=":gneJ17_1" function="internal">
        <lane id=":gneJ17_1_0" index="0" speed="7.66" length="12.90" shape="-93.60,401.60 -97.10,401.10 -99.60,399.60 -101.10,397.10 -101.60,393.60"/>
    </edge>
    <edge id=":gneJ17_2" function="internal">
        <lane id=":gneJ17_2_0" index="0" speed="3.90" length="2.58" shape="-95.20,393.60 -95.10,394.30 -94.80,394.80 -94.30,395.10 -93.60,395.20"/>
    </edge>
    <edge id=":gneJ17_3" function="internal">
        <lane id=":gneJ17_3_0" index="0" speed="6.08" length="7.74" shape="-98.40,393.60 -98.10,395.70 -97.20,397.20 -95.70,398.10 -93.60,398.40"/>
    </edge>
    <edge id=":gneJ18_0" function="internal">
        <lane id=":gneJ18_0_0" index="0" speed="8.96" length="18.06" shape="204.80,393.60 204.10,398.50 202.00,402.00 198.50,404.10 193.60,404.80"/>
    </edge>
    <edge id=":gneJ18_1" function="internal">
        <lane id=":gneJ18_1_0" index="0" speed="7.66" length="12.90" shape="201.60,393.60 201.10,397.10 199.60,399.60 197.10,401.10 193.60,401.60"/>
    </edge>
    <edge id=":gneJ18_2" function="internal">
        <lane id=":gneJ18_2_0" index="0" speed="3.90" length="2.58" shape="193.60,395.20 194.30,395.10 194.80,394.80 195.10,394.30 195.20,393.60"/>
    </edge>
    <edge id=":gneJ18_3" function="internal">
        <lane id=":gneJ18_3_0" index="0" speed="6.08" length="7.74" shape="193.60,398.40 195.70,398.10 197.20,397.20 198.10,395.70 198.40,393.60"/>
    </edge>
    <edge id=":gneJ9_0" function="internal">
        <lane id=":gneJ9_0_0" index="0" speed="8.96" length="18.06" shape="4.80,393.60 4.10,398.50 2.00,402.00 -1.50,404.10 -6.40,404.80"/>
    </edge>
    <edge id=":gneJ9_1" function="internal">
        <lane id=":gneJ9_1_0" index="0" speed="7.66" length="12.90" shape="1.60,393.60 1.10,397.10 -0.40,399.60 -2.90,401.10 -6.40,401.60"/>
    </edge>
    <edge id=":gneJ9_2" function="internal">
        <lane id=":gneJ9_2_0" index="0" speed="3.90" length="2.58" shape="-6.40,395.20 -5.70,395.10 -5.20,394.80 -4.90,394.30 -4.80,393.60"/>
    </edge>
    <edge id=":gneJ9_3" function="internal">
        <lane id=":gneJ9_3_0" index="0" speed="6.08" length="7.74" shape="-6.40,398.40 -4.30,398.10 -2.80,397.20 -1.90,395.70 -1.60,393.60"/>
    </edge>
    <edge id=":light1_0" function="internal">
        <lane id=":light1_0_0" index="0" speed="6.51" length="9.03" shape="-4.80,310.40 -5.15,307.95 -6.20,306.20 -7.95,305.15 -10.40,304.80"/>
    </edge>
    <edge id=":light1_1" function="internal">
        <lane id=":light1_1_0" index="0" speed="40.00" length="20.80" shape="-4.80,310.40 -4.80,289.60"/>
        <lane id=":light1_1_1" index="1" speed="40.00" length="20.80" shape="-1.60,310.40 -1.60,289.60"/>
    </edge>
    <edge id=":light1_3" function="internal">
        <lane id=":light1_3_0" index="0" speed="9.26" length="19.35" shape="-1.60,310.40 -0.85,305.15 1.40,301.40 5.15,299.15 10.40,298.40"/>
    </edge>
    <edge id=":light1_4" function="internal">
        <lane id=":light1_4_0" index="0" speed="6.51" length="9.03" shape="10.40,304.80 7.95,305.15 6.20,306.20 5.15,307.95 4.80,310.40"/>
    </edge>
    <edge id=":light1_5" function="internal">
        <lane id=":light1_5_0" index="0" speed="40.00" length="20.80" shape="10.40,304.80 -10.40,304.80"/>
        <lane id=":light1_5_1" index="1" speed="40.00" length="20.80" shape="10.40,301.60 -10.40,301.60"/>
    </edge>
    <edge id=":light1_7" function="internal">
        <lane id=":light1_7_0" index="0" speed="9.26" length="19.35" shape="10.40,301.60 5.15,300.85 1.40,298.60 -0.85,294.85 -1.60,289.60"/>
    </edge>
    <edge id=":light1_8" function="internal">
        <lane id=":light1_8_0" index="0" speed="6.51" length="9.03" shape="4.80,289.60 5.15,292.05 6.20,293.80 7.95,294.85 10.40,295.20"/>
    </edge>
    <edge id=":light1_9" function="internal">
        <lane id=":light1_9_0" index="0" speed="40.00" length="20.80" shape="4.80,289.60 4.80,310.40"/>
        <lane id=":light1_9_1" index="1" speed="40.00" length="20.80" shape="1.60,289.60 1.60,310.40"/>
    </edge>
    <edge id=":light1_11" function="internal">
        <lane id=":light1_11_0" index="0" speed="9.26" length="19.35" shape="1.60,289.60 0.85,294.85 -1.40,298.60 -5.15,300.85 -10.40,301.60"/>
    </edge>
    <edge id=":light1_12" function="internal">
        <lane id=":light1_12_0" index="0" speed="6.51" length="9.03" shape="-10.40,295.20 -7.95,294.85 -6.20,293.80 -5.15,292.05 -4.80,289.60"/>
    </edge>
    <edge id=":light1_13" function="internal">
        <lane id=":light1_13_0" index="0" speed="40.00" length="20.80" shape="-10.40,295.20 10.40,295.20"/>
        <lane id=":light1_13_1" index="1" speed="40.00" length="20.80" shape="-10.40,298.40 10.40,298.40"/>
    </edge>
    <edge id=":light1_15" function="internal">
        <lane id=":light1_15_0" index="0" speed="9.26" length="19.35" shape="-10.40,298.40 -5.15,299.15 -1.40,301.40 0.85,305.15 1.60,310.40"/>
    </edge>

    <edge id="e10" from="gneJ11" to="light1" priority="-1" length="90.00">
        <lane id="e10_0" index="0" speed="40.00" length="90.00" shape="4.80,206.40 4.80,289.60"/>
        <lane id="e10_1" index="1" speed="40.00" length="90.00" shape="1.60,206.40 1.60,289.60"/>
    </edge>
    <edge id="e11" from="gneJ14" to="gneJ12" priority="-1" length="90.00">
        <lane id="e11_0" index="0" speed="40.00" length="90.00" shape="95.20,393.60 95.20,310.40"/>
        <lane id="e11_1" index="1" speed="40.00" length="90.00" shape="98.40,393.60 98.40,310.40"/>
    </edge>
    <edge id="e12" from="gneJ12" to="gneJ15" priority="-1" length="90.00">
        <lane id="e12_0" index="0" speed="40.00" length="90.00" shape="95.20,289.60 95.20,206.40"/>
        <lane id="e12_1" index="1" speed="40.00" length="90.00" shape="98.40,289.60 98.40,206.40"/>
    </edge>
    <edge id="e13" from="gneJ12" to="gneJ14" priority="-1" length="90.00">
        <lane id="e13_0" index="0" speed="40.00" length="90.00" shape="104.80,310.40 104.80,393.60"/>
        <lane id="e13_1" index="1" speed="40.00" length="90.00" shape="101.60,310.40 101.60,393.60"/>
    </edge>
    <edge id="e14" from="gneJ15" to="gneJ12" priority="-1" length="90.00">
        <lane id="e14_0" index="0" speed="40.00" length="90.00" shape="104.80,206.40 104.80,289.60"/>
        <lane id="e14_1" index="1" speed="40.00" length="90.00" shape="101.60,206.40 101.60,289.60"/>
    </edge>
    <edge id="e2" from="gneJ12" to="light1" priority="-1" length="90.00">
        <lane id="e2_0" index="0" speed="40.00" length="90.00" shape="89.60,304.80 10.40,304.80"/>
        <lane id="e2_1" index="1" speed="40.00" length="90.00" shape="89.60,301.60 10.40,301.60"/>
    </edge>
    <edge id="e3" from="gneJ16" to="gneJ12" priority="-1" length="90.00">
        <lane id="e3_0" index="0" speed="40.00" length="90.00" shape="193.60,304.80 110.40,304.80"/>
        <lane id="e3_1" index="1" speed="40.00" length="90.00" shape="193.60,301.60 110.40,301.60"/>
    </edge>
    <edge id="e5" from="light1" to="gneJ12" priority="-1" length="90.00">
        <lane id="e5_0" index="0" speed="40.00" length="90.00" shape="10.40,295.20 89.60,295.20"/>
        <lane id="e5_1" index="1" speed="40.00" length="90.00" shape="10.40,298.40 89.60,298.40"/>
    </edge>
    <edge id="e6" from="gneJ12" to="gneJ16" priority="-1" length="90.00">
        <lane id="e6_0" index="0" speed="40.00" length="90.00" shape="110.40,295.20 193.60,295.20"/>
        <lane id="e6_1" index="1" speed="40.00" length="90.00" shape="110.40,298.40 193.60,298.40"/>
    </edge>
    <edge id="e7" from="gneJ9" to="light1" priority="-1" length="90.00">
        <lane id="e7_0" index="0" speed="40.00" length="90.00" shape="-4.80,393.60 -4.80,310.40"/>
        <lane id="e7_1" index="1" speed="40.00" length="90.00" shape="-1.60,393.60 -1.60,310.40"/>
    </edge>
    <edge id="e8" from="light1" to="gneJ11" priority="-1" length="90.00">
        <lane id="e8_0" index="0" speed="40.00" length="90.00" shape="-4.80,289.60 -4.80,206.40"/>
        <lane id="e8_1" index="1" speed="40.00" length="90.00" shape="-1.60,289.60 -1.60,206.40"/>
    </edge>
    <edge id="e9" from="light1" to="gneJ9" priority="-1" length="90.00">
        <lane id="e9_0" index="0" speed="40.00" length="90.00" shape="4.80,310.40 4.80,393.60"/>
        <lane id="e9_1" index="1" speed="40.00" length="90.00" shape="1.60,310.40 1.60,393.60"/>
    </edge>
    <edge id="gneE1" from="gneJ13" to="light1" priority="-1" length="90.00">
        <lane id="gneE1_0" index="0" speed="40.00" length="90.00" shape="-93.60,295.20 -10.40,295.20"/>
        <lane id="gneE1_1" index="1" speed="40.00" length="90.00" shape="-93.60,298.40 -10.40,298.40"/>
    </edge>
    <edge id="gneE10" from="gneJ16" to="gneJ18" priority="-1">
        <lane id="gneE10_0" index="0" speed="13.89" length="87.20" shape="204.80,306.40 204.80,393.60"/>
        <lane id="gneE10_1" index="1" speed="13.89" length="87.20" shape="201.60,306.40 201.60,393.60"/>
    </edge>
    <edge id="gneE11" from="gneJ11" to="gneJ15" priority="-1">
        <lane id="gneE11_0" index="0" speed="13.89" length="87.20" shape="6.40,195.20 93.60,195.20"/>
        <lane id="gneE11_1" index="1" speed="13.89" length="87.20" shape="6.40,198.40 93.60,198.40"/>
    </edge>
    <edge id="gneE12" from="gneJ15" to="gneJ11" priority="-1">
        <lane id="gneE12_0" index="0" speed="13.89" length="87.20" shape="93.60,204.80 6.40,204.80"/>
        <lane id="gneE12_1" index="1" speed="13.89" length="87.20" shape="93.60,201.60 6.40,201.60"/>
    </edge>
    <edge id="gneE2" from="light1" to="gneJ13" priority="-1" length="90.00">
        <lane id="gneE2_0" index="0" speed="40.00" length="90.00" shape="-10.40,304.80 -93.60,304.80"/>
        <lane id="gneE2_1" index="1" speed="40.00" length="90.00" shape="-10.40,301.60 -93.60,301.60"/>
    </edge>
    <edge id="gneE3" from="gneJ9" to="gneJ17" priority="-1">
        <lane id="gneE3_0" index="0" speed="13.89" length="87.20" shape="-6.40,404.80 -93.60,404.80"/>
        <lane id="gneE3_1" index="1" speed="13.89" length="87.20" shape="-6.40,401.60 -93.60,401.60"/>
    </edge>
    <edge id="gneE4" from="gneJ13" to="gneJ17" priority="-1">
        <lane id="gneE4_0" index="0" speed="13.89" length="87.20" shape="-95.20,306.40 -95.20,393.60"/>
        <lane id="gneE4_1" index="1" speed="13.89" length="87.20" shape="-98.40,306.40 -98.40,393.60"/>
    </edge>
    <edge id="gneE5" from="gneJ17" to="gneJ13" priority="-1">
        <lane id="gneE5_0" index="0" speed="13.89" length="87.20" shape="-104.80,393.60 -104.80,306.40"/>
        <lane id="gneE5_1" index="1" speed="13.89" length="87.20" shape="-101.60,393.60 -101.60,306.40"/>
    </edge>
    <edge id="gneE6" from="gneJ17" to="gneJ9" priority="-1">
        <lane id="gneE6_0" index="0" speed="13.89" length="87.20" shape="-93.60,395.20 -6.40,395.20"/>
        <lane id="gneE6_1" index="1" speed="13.89" length="87.20" shape="-93.60,398.40 -6.40,398.40"/>
    </edge>
    <edge id="gneE7" from="gneJ14" to="gneJ18" priority="-1">
        <lane id="gneE7_0" index="0" speed="13.89" length="87.20" shape="106.40,395.20 193.60,395.20"/>
        <lane id="gneE7_1" index="1" speed="13.89" length="87.20" shape="106.40,398.40 193.60,398.40"/>
    </edge>
    <edge id="gneE8" from="gneJ18" to="gneJ14" priority="-1">
        <lane id="gneE8_0" index="0" speed="13.89" length="87.20" shape="193.60,404.80 106.40,404.80"/>
        <lane id="gneE8_1" index="1" speed="13.89" length="87.20" shape="193.60,401.60 106.40,401.60"/>
    </edge>
    <edge id="gneE9" from="gneJ18" to="gneJ16" priority="-1">
        <lane id="gneE9_0" index="0" speed="13.89" length="87.20" shape="195.20,393.60 195.20,306.40"/>
        <lane id="gneE9_1" index="1" speed="13.89" length="87.20" shape="198.40,393.60 198.40,306.40"/>
    </edge>

    <tlLogic id="gneJ12" type="static" programID="2" offset="0">
        <phase duration="37" state="GGGgrrrrGGGgrrrr"/>
        <phase duration="8"  state="yyyyrrrryyyyrrrr"/>
        <phase duration="37" state="rrrrGGGgrrrrGGGg"/>
        <phase duration="8"  state="rrrryyyyrrrryyyy"/>
    </tlLogic>
    <tlLogic id="light1" type="static" programID="0" offset="0">
        <phase duration="37" state="GGGrrrrrGGGrrrrrrrr"/>
        <phase duration="8"  state="yyyrrrrryyyrrrrrrrr"/>
        <phase duration="37" state="rrrGrrrrrrrGrrrrGrr"/>
        <phase duration="8"  state="rrryrrrrrrryrrrryrr"/>
        <phase duration="37" state="rrrrrrrGrrrrrrrGrrr"/>
        <phase duration="8"  state="rrrrrrryrrrrrrryrrr"/>
        <phase duration="37" state="rrrrGGGrrrrrGGGrrrr"/>
        <phase duration="8"  state="rrrryyyrrrrryyyrrrr"/>
    </tlLogic>
    <tlLogic id="light1" type="static" programID="1" offset="0">
        <phase duration="37" state="GGGrrrrrGGGrrrrrrrr"/>
        <phase duration="8"  state="yyyrrrrryyyrrrrrrrr"/>
        <phase duration="37" state="rrrGrrrrrrrGrrrrGrr"/>
        <phase duration="8"  state="rrryrrrrrrryrrrryrr"/>
        <phase duration="37" state="rrrrrrrGrrrrrrrGrrr"/>
        <phase duration="8"  state="rrrrrrryrrrrrrryrrr"/>
        <phase duration="37" state="rrrrGGGrrrrrGGGrrrr"/>
        <phase duration="8"  state="rrrryyyrrrrryyyrrrr"/>
    </tlLogic>
    <tlLogic id="light1" type="static" programID="10" offset="0">
        <phase duration="37" state="GGGrrrrrGGGrrrrrrrr"/>
        <phase duration="8"  state="yyyrrrrryyyrrrrrrrr"/>
        <phase duration="37" state="rrrGrrrrrrrGrrrrGrr"/>
        <phase duration="8"  state="rrryrrrrrrryrrrryrr"/>
        <phase duration="37" state="rrrrrrrGrrrrrrrGrrr"/>
        <phase duration="8"  state="rrrrrrryrrrrrrryrrr"/>
        <phase duration="37" state="rrrrGGGrrrrrGGGrrrr"/>
        <phase duration="8"  state="rrrryyyrrrrryyyrrrr"/>
    </tlLogic>
    <tlLogic id="light1" type="static" programID="2" offset="0">
        <phase duration="37" state="GGGrrrrrGGGrrrrrrrr"/>
        <phase duration="8"  state="yyyrrrrryyyrrrrrrrr"/>
        <phase duration="37" state="rrrGrrrrrrrGrrrrGrr"/>
        <phase duration="8"  state="rrryrrrrrrryrrrryrr"/>
        <phase duration="37" state="rrrrrrrGrrrrrrrGrrr"/>
        <phase duration="8"  state="rrrrrrryrrrrrrryrrr"/>
        <phase duration="37" state="rrrrGGGrrrrrGGGrrrr"/>
        <phase duration="8"  state="rrrryyyrrrrryyyrrrr"/>
    </tlLogic>
    <tlLogic id="light1" type="static" programID="3" offset="0">
        <phase duration="37" state="GGGrrrrrGGGrrrrrrrr"/>
        <phase duration="8"  state="yyyrrrrryyyrrrrrrrr"/>
        <phase duration="37" state="rrrGrrrrrrrGrrrrGrr"/>
        <phase duration="8"  state="rrryrrrrrrryrrrryrr"/>
        <phase duration="37" state="rrrrrrrGrrrrrrrGrrr"/>
        <phase duration="8"  state="rrrrrrryrrrrrrryrrr"/>
        <phase duration="37" state="rrrrGGGrrrrrGGGrrrr"/>
        <phase duration="8"  state="rrrryyyrrrrryyyrrrr"/>
    </tlLogic>
    <tlLogic id="light1" type="static" programID="4" offset="0">
        <phase duration="37" state="GGGrrrrrGGGrrrrrrrr"/>
        <phase duration="8"  state="yyyrrrrryyyrrrrrrrr"/>
        <phase duration="37" state="rrrGrrrrrrrGrrrrGrr"/>
        <phase duration="8"  state="rrryrrrrrrryrrrryrr"/>
        <phase duration="37" state="rrrrrrrGrrrrrrrGrrr"/>
        <phase duration="8"  state="rrrrrrryrrrrrrryrrr"/>
        <phase duration="37" state="rrrrGGGrrrrrGGGrrrr"/>
        <phase duration="8"  state="rrrryyyrrrrryyyrrrr"/>
    </tlLogic>
    <tlLogic id="light1" type="static" programID="5" offset="0">
        <phase duration="37" state="GGGrrrrrGGGrrrrrrrr"/>
        <phase duration="8"  state="yyyrrrrryyyrrrrrrrr"/>
        <phase duration="37" state="rrrGrrrrrrrGrrrrGrr"/>
        <phase duration="8"  state="rrryrrrrrrryrrrryrr"/>
        <phase duration="37" state="rrrrrrrGrrrrrrrGrrr"/>
        <phase duration="8"  state="rrrrrrryrrrrrrryrrr"/>
        <phase duration="37" state="rrrrGGGrrrrrGGGrrrr"/>
        <phase duration="8"  state="rrrryyyrrrrryyyrrrr"/>
    </tlLogic>
    <tlLogic id="light1" type="static" programID="6" offset="0">
        <phase duration="37" state="GGGrrrrrGGGrrrrrrrr"/>
        <phase duration="8"  state="yyyrrrrryyyrrrrrrrr"/>
        <phase duration="37" state="rrrGrrrrrrrGrrrrGrr"/>
        <phase duration="8"  state="rrryrrrrrrryrrrryrr"/>
        <phase duration="37" state="rrrrrrrGrrrrrrrGrrr"/>
        <phase duration="8"  state="rrrrrrryrrrrrrryrrr"/>
        <phase duration="37" state="rrrrGGGrrrrrGGGrrrr"/>
        <phase duration="8"  state="rrrryyyrrrrryyyrrrr"/>
    </tlLogic>
    <tlLogic id="light1" type="static" programID="7" offset="0">
        <phase duration="37" state="GGGrrrrrGGGrrrrrrrr"/>
        <phase duration="8"  state="yyyrrrrryyyrrrrrrrr"/>
        <phase duration="37" state="rrrGrrrrrrrGrrrrGrr"/>
        <phase duration="8"  state="rrryrrrrrrryrrrryrr"/>
        <phase duration="37" state="rrrrrrrGrrrrrrrGrrr"/>
        <phase duration="8"  state="rrrrrrryrrrrrrryrrr"/>
        <phase duration="37" state="rrrrGGGrrrrrGGGrrrr"/>
        <phase duration="8"  state="rrrryyyrrrrryyyrrrr"/>
    </tlLogic>
    <tlLogic id="light1" type="static" programID="8" offset="0">
        <phase duration="37" state="GGGrrrrrGGGrrrrrrrr"/>
        <phase duration="8"  state="yyyrrrrryyyrrrrrrrr"/>
        <phase duration="37" state="rrrGrrrrrrrGrrrrGrr"/>
        <phase duration="8"  state="rrryrrrrrrryrrrryrr"/>
        <phase duration="37" state="rrrrrrrGrrrrrrrGrrr"/>
        <phase duration="8"  state="rrrrrrryrrrrrrryrrr"/>
        <phase duration="37" state="rrrrGGGrrrrrGGGrrrr"/>
        <phase duration="8"  state="rrrryyyrrrrryyyrrrr"/>
    </tlLogic>
    <tlLogic id="light1" type="static" programID="9" offset="0">
        <phase duration="37" state="GGGrrrrrGGGrrrrrrrr"/>
        <phase duration="8"  state="yyyrrrrryyyrrrrrrrr"/>
        <phase duration="37" state="rrrGrrrrrrrGrrrrGrr"/>
        <phase duration="8"  state="rrryrrrrrrryrrrryrr"/>
        <phase duration="37" state="rrrrrrrGrrrrrrrGrrr"/>
        <phase duration="8"  state="rrrrrrryrrrrrrryrrr"/>
        <phase duration="37" state="rrrrGGGrrrrrGGGrrrr"/>
        <phase duration="8"  state="rrrryyyrrrrryyyrrrr"/>
    </tlLogic>

    <junction id="gneJ11" type="priority" x="0.00" y="200.00" incLanes="e8_0 e8_1 gneE12_0 gneE12_1" intLanes=":gneJ11_0_0 :gneJ11_1_0 :gneJ11_2_0 :gneJ11_3_0" shape="-6.40,206.40 6.40,206.40 6.40,193.60 2.49,193.96 -0.71,195.02 -3.20,196.80 -4.98,199.29 -6.04,202.49">
        <request index="0" response="0000" foes="0000" cont="0"/>
        <request index="1" response="0000" foes="0000" cont="0"/>
        <request index="2" response="0000" foes="0000" cont="0"/>
        <request index="3" response="0000" foes="0000" cont="0"/>
    </junction>
    <junction id="gneJ12" type="traffic_light" x="100.00" y="300.00" incLanes="e11_0 e11_1 e3_0 e3_1 e14_0 e14_1 e5_0 e5_1" intLanes=":gneJ12_0_0 :gneJ12_1_0 :gneJ12_1_1 :gneJ12_16_0 :gneJ12_4_0 :gneJ12_5_0 :gneJ12_5_1 :gneJ12_17_0 :gneJ12_8_0 :gneJ12_9_0 :gneJ12_9_1 :gneJ12_18_0 :gneJ12_12_0 :gneJ12_13_0 :gneJ12_13_1 :gneJ12_19_0" shape="93.60,310.40 106.40,310.40 106.84,308.18 107.40,307.40 108.18,306.84 109.18,306.51 110.40,306.40 110.40,293.60 108.18,293.16 107.40,292.60 106.84,291.82 106.51,290.82 106.40,289.60 93.60,289.60 93.16,291.82 92.60,292.60 91.82,293.16 90.82,293.49 89.60,293.60 89.60,306.40 91.82,306.84 92.60,307.40 93.16,308.18 93.49,309.18">
        <request index="0"  response="0000000000000000" foes="0000000001100000" cont="0"/>
        <request index="1"  response="1000000010000000" foes="1111100011100000" cont="0"/>
        <request index="2"  response="1000000010000000" foes="1111100011100000" cont="0"/>
        <request index="3"  response="1000011010000000" foes="1110011011100000" cont="1"/>
        <request index="4"  response="0000011000000000" foes="0000011000000000" cont="0"/>
        <request index="5"  response="0000111000001111" foes="1000111000001111" cont="0"/>
        <request index="6"  response="0000111000001111" foes="1000111000001111" cont="0"/>
        <request index="7"  response="0110111000001110" foes="0110111000001110" cont="1"/>
        <request index="8"  response="0000000000000000" foes="0110000000000000" cont="0"/>
        <request index="9"  response="1000000010000000" foes="1110000011111000" cont="0"/>
        <request index="10" response="1000000010000000" foes="1110000011111000" cont="0"/>
        <request index="11" response="1000000010000110" foes="1110000011100110" cont="1"/>
        <request index="12" response="0000000000000110" foes="0000000000000110" cont="0"/>
        <request index="13" response="0000111100001110" foes="0000111110001110" cont="0"/>
        <request index="14" response="0000111100001110" foes="0000111110001110" cont="0"/>
        <request index="15" response="0000111001101110" foes="0000111001101110" cont="1"/>
    </junction>