<?xml version="1.0" encoding="UTF-8"?>

<!-- generated on 08/25/21 11:01:33 by Eclipse SUMO netgenerate Version 1.8.0
<configuration xmlns:xsi="http://www.w3.org/2001/XMLSchema-instance" xsi:noNamespaceSchemaLocation="http://sumo.dlr.de/xsd/netgenerateConfiguration.xsd">

    <spider_network>
        <spider value="true"/>
        <spider.arm-number value="12"/>
        <spider.circle-number value="6"/>
        <spider.space-radius value="100"/>
    </spider_network>

    <random_network>
        <rand.random-lanenumber value="true"/>
    </random_network>

    <output>
        <output-file value="spider12.net.xml"/>
    </output>

    <building_defaults>
        <default.lanenumber value="3"/>
    </building_defaults>

    <junctions>
        <no-turnarounds value="true"/>
    </junctions>

</configuration>
-->

<net version="1.6" junctionCornerDetail="5" limitTurnSpeed="5.50" xmlns:xsi="http://www.w3.org/2001/XMLSchema-instance" xsi:noNamespaceSchemaLocation="http://sumo.dlr.de/xsd/net_file.xsd">

    <location netOffset="600.00,600.00" convBoundary="0.00,0.00,1200.00,1200.00" origBoundary="-600.00,-600.00,600.00,600.00" projParameter="!"/>

    <edge id=":A1_0" function="internal">
        <lane id=":A1_0_0" index="0" speed="5.74" length="12.21" shape="598.40,628.74 598.03,625.01 596.94,623.79 595.11,625.09 592.56,628.89"/>
    </edge>
    <edge id=":A1_1" function="internal">
        <lane id=":A1_1_0" index="0" speed="10.69" length="36.60" shape="598.40,628.74 596.59,621.66 591.18,618.98 582.15,620.71 569.51,626.84"/>
    </edge>
    <edge id=":A1_2" function="internal">
        <lane id=":A1_2_0" index="0" speed="13.89" length="48.39" shape="598.40,628.74 596.01,619.67 588.84,613.19 576.90,609.30 560.17,608.00"/>
    </edge>
    <edge id=":A1_3" function="internal">
        <lane id=":A1_3_0" index="0" speed="13.89" length="57.89" shape="598.40,628.74 596.09,618.47 589.18,608.10 577.65,597.61 561.51,587.01"/>
    </edge>
    <edge id=":A1_4" function="internal">
        <lane id=":A1_4_0" index="0" speed="13.89" length="48.61" shape="598.40,628.74 597.04,619.85 593.86,604.85 590.21,589.96 587.44,581.45"/>
    </edge>
    <edge id=":A1_5" function="internal">
        <lane id=":A1_5_0" index="0" speed="13.89" length="62.17" shape="598.40,628.74 598.40,566.57"/>
    </edge>
    <edge id=":A1_6" function="internal">
        <lane id=":A1_6_0" index="0" speed="13.89" length="61.83" shape="598.40,628.74 600.41,618.60 605.20,600.50 610.94,581.71 615.76,569.51"/>
    </edge>
    <edge id=":A1_7" function="internal">
        <lane id=":A1_7_0" index="0" speed="13.89" length="64.16" shape="598.40,628.74 600.61,614.49 607.22,601.40 618.25,589.47 633.69,578.70"/>
    </edge>
    <edge id=":A1_8" function="internal">
        <lane id=":A1_8_0" index="0" speed="13.89" length="58.15" shape="598.40,628.74 600.99,615.47 608.76,605.99 621.70,600.30 639.83,598.40"/>
    </edge>
    <edge id=":A1_9" function="internal">
        <lane id=":A1_9_0" index="0" speed="10.02" length="31.96" shape="598.40,628.74 600.72,621.41 606.39,614.26 613.50,609.62 620.15,609.79"/>
    </edge>
    <edge id=":A1_10" function="internal">
        <lane id=":A1_10_0" index="0" speed="7.19" length="20.24" shape="598.40,628.74 600.13,623.85 604.17,619.18 608.75,616.56 612.13,617.81"/>
    </edge>
    <edge id=":A1_11" function="internal">
        <lane id=":A1_11_0" index="0" speed="7.46" length="21.98" shape="609.36,619.41 605.96,614.95 603.54,615.02 602.08,619.62 601.60,628.74"/>
    </edge>
    <edge id=":A1_12" function="internal">
        <lane id=":A1_12_0" index="0" speed="8.73" length="23.91" shape="609.36,619.41 606.18,616.32 602.33,616.87 597.78,621.06 592.56,628.89"/>
    </edge>
    <edge id=":A1_13" function="internal">
        <lane id=":A1_13_0" index="0" speed="13.70" length="43.64" shape="609.36,619.41 604.34,615.49 596.02,615.43 584.41,619.21 569.51,626.84"/>
    </edge>
    <edge id=":A1_14" function="internal">
        <lane id=":A1_14_0" index="0" speed="13.89" length="51.88" shape="609.36,619.41 603.81,614.42 593.77,610.85 579.22,608.71 560.17,608.00"/>
    </edge>
    <edge id=":A1_15" function="internal">
        <lane id=":A1_15_0" index="0" speed="13.89" length="58.21" shape="609.36,619.41 602.90,613.14 590.17,603.01 575.46,592.29 563.11,584.24"/>
    </edge>
    <edge id=":A1_16" function="internal">
        <lane id=":A1_16_0" index="0" speed="13.89" length="43.83" shape="609.36,619.41 587.44,581.45"/>
    </edge>
    <edge id=":A1_17" function="internal">
        <lane id=":A1_17_0" index="0" speed="13.89" length="54.02" shape="609.36,619.41 606.59,610.03 602.94,593.24 599.76,576.33 598.40,566.57"/>
    </edge>
    <edge id=":A1_18" function="internal">
        <lane id=":A1_18_0" index="0" speed="13.89" length="52.60" shape="609.36,619.41 605.56,609.01 605.35,597.23 608.76,584.06 615.76,569.51"/>
    </edge>
    <edge id=":A1_19" function="internal">
        <lane id=":A1_19_0" index="0" speed="13.89" length="52.86" shape="609.36,619.41 606.55,609.37 609.67,599.23 618.72,589.01 633.69,578.70"/>
    </edge>
    <edge id=":A1_20" function="internal">
        <lane id=":A1_20_0" index="0" speed="11.08" length="39.43" shape="609.36,619.41 611.02,612.93 619.62,606.07 630.70,600.62 639.83,598.40"/>
    </edge>
    <edge id=":A1_21" function="internal">
        <lane id=":A1_21_0" index="0" speed="6.60" length="16.79" shape="609.36,619.41 609.44,615.80 612.28,612.13 616.36,609.69 620.15,609.79"/>
    </edge>
    <edge id=":A1_22" function="internal">
        <lane id=":A1_22_0" index="0" speed="5.53" length="11.20" shape="618.55,612.56 615.08,610.92 613.32,610.98 613.26,612.74 614.90,616.21"/>
    </edge>
    <edge id=":A1_23" function="internal">
        <lane id=":A1_23_0" index="0" speed="9.92" length="31.32" shape="618.55,612.56 611.13,609.90 605.84,611.71 602.66,617.99 601.60,628.74"/>
    </edge>
    <edge id=":A1_24" function="internal">
        <lane id=":A1_24_0" index="0" speed="12.15" length="34.09" shape="618.55,612.56 612.27,610.89 605.84,613.05 599.27,619.06 592.56,628.89"/>
    </edge>
    <edge id=":A1_25" function="internal">
        <lane id=":A1_25_0" index="0" speed="13.89" length="52.58" shape="618.55,612.56 610.93,610.82 600.21,612.62 586.41,617.96 569.51,626.84"/>
    </edge>
    <edge id=":A1_26" function="internal">
        <lane id=":A1_26_0" index="0" speed="13.89" length="59.00" shape="618.55,612.56 609.71,610.29 593.36,607.74 575.01,605.66 560.17,604.80"/>
    </edge>
    <edge id=":A1_27" function="internal">
        <lane id=":A1_27_0" index="0" speed="13.89" length="62.25" shape="618.55,612.56 563.11,584.24"/>
    </edge>
    <edge id=":A1_28" function="internal">
        <lane id=":A1_28_0" index="0" speed="13.89" length="44.06" shape="618.55,612.56 612.21,607.25 602.31,597.69 592.75,587.79 587.44,581.45"/>
    </edge>
    <edge id=":A1_29" function="internal">
        <lane id=":A1_29_0" index="0" speed="13.89" length="52.55" shape="618.55,612.56 609.73,605.32 603.44,595.24 599.66,582.33 598.40,566.57"/>
    </edge>
    <edge id=":A1_30" function="internal">
        <lane id=":A1_30_0" index="0" speed="13.89" length="48.62" shape="618.55,612.56 610.60,605.38 607.48,595.81 609.20,583.85 615.76,569.51"/>
    </edge>
    <edge id=":A1_31" function="internal">
        <lane id=":A1_31_0" index="0" speed="11.10" length="39.57" shape="618.55,612.56 616.59,606.02 620.35,595.63 627.00,585.24 633.69,578.70"/>
    </edge>
    <edge id=":A1_32" function="internal">
        <lane id=":A1_32_0" index="0" speed="8.50" length="29.06" shape="618.55,612.56 617.56,608.55 623.23,603.88 631.87,600.01 639.83,598.40"/>
    </edge>
    <edge id=":A1_33" function="internal">
        <lane id=":A1_33_0" index="0" speed="8.71" length="30.64" shape="639.83,601.60 625.90,602.11 617.98,603.65 616.06,606.20 620.15,609.79"/>
    </edge>
    <edge id=":A1_34" function="internal">
        <lane id=":A1_34_0" index="0" speed="10.57" length="35.77" shape="639.83,601.60 625.76,602.51 616.91,605.25 613.30,609.82 614.90,616.21"/>
    </edge>
    <edge id=":A1_35" function="internal">
        <lane id=":A1_35_0" index="0" speed="13.89" length="53.01" shape="639.83,601.60 623.10,603.30 611.16,608.39 603.99,616.87 601.60,628.74"/>
    </edge>
    <edge id=":A1_36" function="internal">
        <lane id=":A1_36_0" index="0" speed="13.89" length="57.32" shape="639.83,601.60 625.06,603.31 612.25,608.42 601.42,616.95 592.56,628.89"/>
    </edge>
    <edge id=":A1_37" function="internal">
        <lane id=":A1_37_0" index="0" speed="13.89" length="75.48" shape="639.83,601.60 628.31,604.06 606.86,610.02 583.92,617.40 567.91,624.07"/>
    </edge>
    <edge id=":A1_38" function="internal">
        <lane id=":A1_38_0" index="0" speed="13.89" length="79.72" shape="639.83,601.60 560.17,604.80"/>
    </edge>
    <edge id=":A1_39" function="internal">
        <lane id=":A1_39_0" index="0" speed="13.89" length="78.84" shape="639.83,601.60 627.56,599.94 604.46,595.73 579.87,590.12 563.11,584.24"/>
    </edge>
    <edge id=":A1_40" function="internal">
        <lane id=":A1_40_0" index="0" speed="13.89" length="58.56" shape="639.83,601.60 621.27,600.34 606.36,596.56 595.08,590.27 587.44,581.45"/>
    </edge>
    <edge id=":A1_41" function="internal">
        <lane id=":A1_41_0" index="0" speed="13.89" length="61.74" shape="639.83,601.60 621.70,599.41 608.76,592.84 600.99,581.90 598.40,566.57"/>
    </edge>
    <edge id=":A1_42" function="internal">
        <lane id=":A1_42_0" index="0" speed="11.50" length="42.58" shape="639.83,601.60 631.69,597.67 622.79,588.44 616.39,577.77 615.76,569.51"/>
    </edge>
    <edge id=":A1_43" function="internal">
        <lane id=":A1_43_0" index="0" speed="8.29" length="27.54" shape="639.83,601.60 634.57,598.58 631.23,591.63 630.65,583.95 633.69,578.70"/>
    </edge>
    <edge id=":A1_44" function="internal">
        <lane id=":A1_44_0" index="0" speed="5.53" length="11.20" shape="638.49,587.01 635.34,589.20 634.51,590.75 636.00,591.69 639.83,592.00"/>
    </edge>
    <edge id=":A1_45" function="internal">
        <lane id=":A1_45_0" index="0" speed="10.29" length="33.83" shape="638.49,587.01 626.51,594.69 619.46,601.05 617.34,606.08 620.15,609.79"/>
    </edge>
    <edge id=":A1_46" function="internal">
        <lane id=":A1_46_0" index="0" speed="13.24" length="40.68" shape="638.49,587.01 625.64,595.41 617.43,603.07 613.85,610.00 614.90,616.21"/>
    </edge>
    <edge id=":A1_47" function="internal">
        <lane id=":A1_47_0" index="0" speed="13.89" length="57.89" shape="638.49,587.01 622.35,597.61 610.82,608.10 603.91,618.47 601.60,628.74"/>
    </edge>
    <edge id=":A1_48" function="internal">
        <lane id=":A1_48_0" index="0" speed="13.89" length="63.59" shape="638.49,587.01 626.46,594.64 612.08,605.09 598.73,616.57 589.79,627.29"/>
    </edge>
    <edge id=":A1_49" function="internal">
        <lane id=":A1_49_0" index="0" speed="13.89" length="65.23" shape="636.89,584.24 624.67,592.06 609.89,602.91 596.14,614.79 587.01,625.69"/>
    </edge>
    <edge id=":A1_50" function="internal">
        <lane id=":A1_50_0" index="0" speed="13.89" length="79.66" shape="636.89,584.24 567.91,624.07"/>
    </edge>
    <edge id=":A1_51" function="internal">
        <lane id=":A1_51_0" index="0" speed="13.89" length="79.74" shape="636.89,584.24 621.53,590.62 599.29,597.33 576.66,602.64 560.17,604.80"/>
    </edge>
    <edge id=":A1_52" function="internal">
        <lane id=":A1_52_0" index="0" speed="13.89" length="74.12" shape="635.29,581.47 617.65,589.11 600.00,591.66 582.35,589.11 564.71,581.47"/>
    </edge>
    <edge id=":A1_53" function="internal">
        <lane id=":A1_53_0" index="0" speed="13.89" length="48.84" shape="635.29,581.47 625.04,584.16 609.73,585.29 595.24,584.52 587.44,581.45"/>
    </edge>
    <edge id=":A1_54" function="internal">
        <lane id=":A1_54_0" index="0" speed="11.46" length="42.27" shape="635.29,581.47 626.28,582.27 613.96,579.02 603.08,573.28 598.40,566.57"/>
    </edge>
    <edge id=":A1_55" function="internal">
        <lane id=":A1_55_0" index="0" speed="8.15" length="26.55" shape="635.29,581.47 628.91,582.14 621.61,579.40 616.27,574.70 615.76,569.51"/>
    </edge>
    <edge id=":A1_56" function="internal">
        <lane id=":A1_56_0" index="0" speed="8.40" length="28.35" shape="621.30,572.71 617.80,580.48 618.70,584.07 624.00,583.47 633.69,578.70"/>
    </edge>
    <edge id=":A1_57" function="internal">
        <lane id=":A1_57_0" index="0" speed="10.57" length="35.73" shape="621.30,572.71 618.28,581.15 620.36,587.18 627.54,590.79 639.83,592.00"/>
    </edge>
    <edge id=":A1_58" function="internal">
        <lane id=":A1_58_0" index="0" speed="13.33" length="41.24" shape="621.30,572.71 615.10,585.64 612.84,596.13 614.52,604.18 620.15,609.79"/>
    </edge>
    <edge id=":A1_59" function="internal">
        <lane id=":A1_59_0" index="0" speed="13.89" length="45.91" shape="621.30,572.71 614.99,585.66 611.82,597.23 611.79,607.41 614.90,616.21"/>
    </edge>
    <edge id=":A1_60" function="internal">
        <lane id=":A1_60_0" index="0" speed="13.89" length="59.49" shape="621.30,572.71 616.11,584.41 609.57,602.10 603.97,619.10 601.60,628.74"/>
    </edge>
    <edge id=":A1_61" function="internal">
        <lane id=":A1_61_0" index="0" speed="13.89" length="63.03" shape="621.30,572.71 589.79,627.29"/>
        <lane id=":A1_61_1" index="1" speed="13.89" length="63.03" shape="618.53,571.11 587.01,625.69"/>
    </edge>
    <edge id=":A1_63" function="internal">
        <lane id=":A1_63_0" index="0" speed="13.89" length="73.51" shape="618.53,571.11 610.34,581.98 596.21,598.02 580.59,613.85 567.91,624.07"/>
    </edge>
    <edge id=":A1_64" function="internal">
        <lane id=":A1_64_0" index="0" speed="13.89" length="69.10" shape="618.53,571.11 608.28,584.45 595.14,593.98 579.10,599.69 560.17,601.60"/>
    </edge>
    <edge id=":A1_65" function="internal">
        <lane id=":A1_65_0" index="0" speed="13.89" length="56.04" shape="618.53,571.11 609.36,576.54 592.87,580.79 575.75,582.79 564.71,581.47"/>
    </edge>
    <edge id=":A1_66" function="internal">
        <lane id=":A1_66_0" index="0" speed="10.54" length="35.55" shape="618.53,571.11 612.42,577.05 602.99,582.05 593.55,584.16 587.44,581.45"/>
    </edge>
    <edge id=":A1_67" function="internal">
        <lane id=":A1_67_0" index="0" speed="7.77" length="23.97" shape="618.53,571.11 613.93,573.88 607.17,573.65 601.06,571.02 598.40,566.57"/>
    </edge>
    <edge id=":A1_68" function="internal">
        <lane id=":A1_68_0" index="0" speed="5.53" length="11.20" shape="608.00,566.57 608.31,570.40 609.25,571.89 610.80,571.06 612.99,567.91"/>
    </edge>
    <edge id=":A1_69" function="internal">
        <lane id=":A1_69_0" index="0" speed="10.98" length="38.67" shape="608.00,566.57 609.61,577.44 614.42,583.09 622.45,583.50 633.69,578.70"/>
    </edge>
    <edge id=":A1_70" function="internal">
        <lane id=":A1_70_0" index="0" speed="13.89" length="46.28" shape="608.00,566.57 609.99,577.70 615.96,585.64 625.90,590.41 639.83,592.00"/>
    </edge>
    <edge id=":A1_71" function="internal">
        <lane id=":A1_71_0" index="0" speed="13.89" length="46.40" shape="608.00,566.57 608.76,582.85 611.04,595.48 614.83,604.45 620.15,609.79"/>
    </edge>
    <edge id=":A1_72" function="internal">
        <lane id=":A1_72_0" index="0" speed="13.89" length="50.39" shape="608.00,566.57 608.37,579.44 609.57,593.77 611.71,606.91 614.90,616.21"/>
    </edge>
    <edge id=":A1_73" function="internal">
        <lane id=":A1_73_0" index="0" speed="13.89" length="52.03" shape="604.80,566.57 605.24,579.69 606.59,594.57 608.87,608.26 612.13,617.81"/>
    </edge>
    <edge id=":A1_74" function="internal">
        <lane id=":A1_74_0" index="0" speed="13.89" length="62.25" shape="604.80,566.57 601.60,628.74"/>
    </edge>
    <edge id=":A1_75" function="internal">
        <lane id=":A1_75_0" index="0" speed="13.89" length="62.92" shape="604.80,566.57 603.51,580.56 600.11,597.69 595.30,614.43 589.79,627.29"/>
    </edge>
    <edge id=":A1_76" function="internal">
        <lane id=":A1_76_0" index="0" speed="13.89" length="68.34" shape="601.60,566.57 599.39,582.87 592.78,597.43 581.75,610.24 566.31,621.30"/>
    </edge>
    <edge id=":A1_77" function="internal">
        <lane id=":A1_77_0" index="0" speed="13.89" length="61.74" shape="601.60,566.57 599.01,581.90 591.24,592.84 578.30,599.41 560.17,601.60"/>
    </edge>
    <edge id=":A1_78" function="internal">
        <lane id=":A1_78_0" index="0" speed="11.46" length="42.27" shape="601.60,566.57 596.92,573.28 586.04,579.02 573.72,582.27 564.71,581.47"/>
    </edge>
    <edge id=":A1_79" function="internal">
        <lane id=":A1_79_0" index="0" speed="7.71" length="23.56" shape="601.60,566.57 599.87,572.62 595.81,578.80 591.10,582.59 587.44,581.45"/>
    </edge>
    <edge id=":A1_80" function="internal">
        <lane id=":A1_80_0" index="0" speed="8.02" length="25.65" shape="590.21,579.85 593.80,584.34 596.35,583.62 597.89,577.70 598.40,566.57"/>
    </edge>
    <edge id=":A1_81" function="internal">
        <lane id=":A1_81_0" index="0" speed="10.06" length="32.23" shape="590.21,579.85 594.61,584.26 599.88,583.74 606.00,578.29 612.99,567.91"/>
    </edge>
    <edge id=":A1_82" function="internal">
        <lane id=":A1_82_0" index="0" speed="13.89" length="48.39" shape="590.21,579.85 596.82,586.52 606.27,588.55 618.56,585.94 633.69,578.70"/>
    </edge>
    <edge id=":A1_83" function="internal">
        <lane id=":A1_83_0" index="0" speed="13.89" length="52.58" shape="590.21,579.85 595.95,585.17 606.12,588.96 620.75,591.24 639.83,592.00"/>
    </edge>
    <edge id=":A1_84" function="internal">
        <lane id=":A1_84_0" index="0" speed="13.89" length="42.41" shape="590.21,579.85 595.34,586.00 604.50,595.50 614.00,604.66 620.15,609.79"/>
    </edge>
    <edge id=":A1_85" function="internal">
        <lane id=":A1_85_0" index="0" speed="13.89" length="43.83" shape="590.21,579.85 612.13,617.81"/>
    </edge>
    <edge id=":A1_86" function="internal">
        <lane id=":A1_86_0" index="0" speed="13.89" length="50.26" shape="590.21,579.85 593.05,588.61 596.84,604.05 600.17,619.60 601.60,628.74"/>
    </edge>
    <edge id=":A1_87" function="internal">
        <lane id=":A1_87_0" index="0" speed="13.89" length="48.19" shape="590.21,579.85 594.38,590.27 595.23,601.39 592.78,613.19 587.01,625.69"/>
    </edge>
    <edge id=":A1_88" function="internal">
        <lane id=":A1_88_0" index="0" speed="13.89" length="53.46" shape="590.21,579.85 593.21,590.22 590.22,600.58 581.26,610.94 566.31,621.30"/>
    </edge>
    <edge id=":A1_89" function="internal">
        <lane id=":A1_89_0" index="0" speed="11.10" length="39.57" shape="590.21,579.85 588.65,586.50 580.19,593.61 569.24,599.28 560.17,601.60"/>
    </edge>
    <edge id=":A1_90" function="internal">
        <lane id=":A1_90_0" index="0" speed="8.50" length="29.06" shape="590.21,579.85 589.06,583.82 581.83,585.03 572.41,584.05 564.71,581.47"/>
    </edge>
    <edge id=":A1_91" function="internal">
        <lane id=":A1_91_0" index="0" speed="7.94" length="25.15" shape="567.91,575.93 578.32,581.58 585.05,584.39 588.09,584.34 587.44,581.45"/>
    </edge>
    <edge id=":A1_92" function="internal">
        <lane id=":A1_92_0" index="0" speed="11.52" length="42.71" shape="567.91,575.93 581.25,581.95 590.78,582.39 596.49,577.27 598.40,566.57"/>
    </edge>
    <edge id=":A1_93" function="internal">
        <lane id=":A1_93_0" index="0" speed="13.89" length="52.10" shape="567.91,575.93 582.10,582.00 594.35,582.68 604.64,577.99 612.99,567.91"/>
    </edge>
    <edge id=":A1_94" function="internal">
        <lane id=":A1_94_0" index="0" speed="13.89" length="69.10" shape="567.91,575.93 585.25,583.74 602.00,586.81 618.15,585.13 633.69,578.70"/>
    </edge>
    <edge id=":A1_95" function="internal">
        <lane id=":A1_95_0" index="0" speed="13.89" length="74.69" shape="567.91,575.93 580.69,581.05 601.49,587.44 623.48,592.89 639.83,595.20"/>
    </edge>
    <edge id=":A1_96" function="internal">
        <lane id=":A1_96_0" index="0" speed="13.89" length="62.25" shape="567.91,575.93 620.15,609.79"/>
    </edge>
    <edge id=":A1_97" function="internal">
        <lane id=":A1_97_0" index="0" speed="13.89" length="60.43" shape="566.31,578.70 576.42,585.70 590.59,596.88 604.08,608.75 612.13,617.81"/>
    </edge>
    <edge id=":A1_98" function="internal">
        <lane id=":A1_98_0" index="0" speed="13.89" length="64.16" shape="566.31,578.70 581.75,589.47 592.78,601.40 599.39,614.49 601.60,628.74"/>
    </edge>
    <edge id=":A1_99" function="internal">
        <lane id=":A1_99_0" index="0" speed="13.89" length="58.15" shape="566.31,578.70 581.06,589.41 589.42,600.81 591.41,612.90 587.01,625.69"/>
    </edge>
    <edge id=":A1_100" function="internal">
        <lane id=":A1_100_0" index="0" speed="11.81" length="44.97" shape="566.31,578.70 570.64,586.61 572.08,600.00 570.64,613.39 566.31,621.30"/>
    </edge>
    <edge id=":A1_101" function="internal">
        <lane id=":A1_101_0" index="0" speed="8.29" length="27.54" shape="566.31,578.70 569.35,583.95 568.77,591.63 565.43,598.58 560.17,601.60"/>
    </edge>
    <edge id=":A1_102" function="internal">
        <lane id=":A1_102_0" index="0" speed="5.53" length="11.20" shape="560.17,592.00 564.00,591.69 565.49,590.75 564.66,589.20 561.51,587.01"/>
    </edge>
    <edge id=":A1_103" function="internal">
        <lane id=":A1_103_0" index="0" speed="10.29" length="33.83" shape="560.17,592.00 574.39,591.34 583.67,589.36 588.02,586.07 587.44,581.45"/>
    </edge>
    <edge id=":A1_104" function="internal">
        <lane id=":A1_104_0" index="0" speed="13.89" length="51.74" shape="560.17,592.00 576.90,590.41 588.84,585.64 596.01,577.70 598.40,566.57"/>
    </edge>
    <edge id=":A1_105" function="internal">
        <lane id=":A1_105_0" index="0" speed="13.89" length="60.81" shape="560.17,592.00 578.06,590.49 592.83,585.98 604.47,578.45 612.99,567.91"/>
    </edge>
    <edge id=":A1_106" function="internal">
        <lane id=":A1_106_0" index="0" speed="13.89" length="74.83" shape="560.17,592.00 577.38,590.27 600.93,586.29 622.49,581.83 633.69,578.70"/>
    </edge>
    <edge id=":A1_107" function="internal">
        <lane id=":A1_107_0" index="0" speed="13.89" length="79.72" shape="560.17,592.00 639.83,595.20"/>
        <lane id=":A1_107_1" index="1" speed="13.89" length="79.72" shape="560.17,595.20 639.83,598.40"/>
    </edge>
    <edge id=":A1_109" function="internal">
        <lane id=":A1_109_0" index="0" speed="13.89" length="61.90" shape="560.17,595.20 575.26,597.13 594.16,601.56 611.06,606.45 620.15,609.79"/>
    </edge>
    <edge id=":A1_110" function="internal">
        <lane id=":A1_110_0" index="0" speed="13.89" length="57.82" shape="560.17,598.40 578.70,599.61 593.54,603.25 604.68,609.32 612.13,617.81"/>
    </edge>
    <edge id=":A1_111" function="internal">
        <lane id=":A1_111_0" index="0" speed="13.89" length="58.15" shape="560.17,598.40 578.30,600.30 591.24,605.99 599.01,615.47 601.60,628.74"/>
    </edge>
    <edge id=":A1_112" function="internal">
        <lane id=":A1_112_0" index="0" speed="11.26" length="40.79" shape="560.17,598.40 568.74,601.58 578.59,609.16 585.95,618.18 587.01,625.69"/>
    </edge>
    <edge id=":A1_113" function="internal">
        <lane id=":A1_113_0" index="0" speed="8.29" length="27.54" shape="560.17,598.40 565.43,601.42 568.77,608.37 569.35,616.05 566.31,621.30"/>
    </edge>
    <edge id=":A1_114" function="internal">
        <lane id=":A1_114_0" index="0" speed="5.53" length="11.20" shape="561.51,612.99 564.66,610.80 565.49,609.25 564.00,608.31 560.17,608.00"/>
    </edge>
    <edge id=":A1_115" function="internal">
        <lane id=":A1_115_0" index="0" speed="10.52" length="35.44" shape="561.51,612.99 569.94,606.49 572.75,600.00 569.94,593.51 561.51,587.01"/>
    </edge>
    <edge id=":A1_116" function="internal">
        <lane id=":A1_116_0" index="0" speed="13.78" length="44.16" shape="561.51,612.99 575.54,603.85 584.55,595.55 588.51,588.08 587.44,581.45"/>
    </edge>
    <edge id=":A1_117" function="internal">
        <lane id=":A1_117_0" index="0" speed="13.89" length="61.90" shape="561.51,612.99 577.65,602.10 589.18,590.73 596.09,578.89 598.40,566.57"/>
    </edge>
    <edge id=":A1_118" function="internal">
        <lane id=":A1_118_0" index="0" speed="13.89" length="68.66" shape="561.51,612.99 574.33,604.00 590.24,590.88 604.66,577.55 612.99,567.91"/>
    </edge>
    <edge id=":A1_119" function="internal">
        <lane id=":A1_119_0" index="0" speed="13.89" length="70.30" shape="563.11,615.76 576.11,606.58 592.43,593.07 607.25,579.33 615.76,569.51"/>
    </edge>
    <edge id=":A1_120" function="internal">
        <lane id=":A1_120_0" index="0" speed="13.89" length="79.72" shape="563.11,615.76 633.69,578.70"/>
    </edge>
    <edge id=":A1_121" function="internal">
        <lane id=":A1_121_0" index="0" speed="13.89" length="79.74" shape="563.11,615.76 578.47,609.38 600.71,602.67 623.34,597.36 639.83,595.20"/>
    </edge>
    <edge id=":A1_122" function="internal">
        <lane id=":A1_122_0" index="0" speed="13.89" length="58.56" shape="564.71,618.53 581.41,610.34 596.21,606.15 609.13,605.97 620.15,609.79"/>
    </edge>
    <edge id=":A1_123" function="internal">
        <lane id=":A1_123_0" index="0" speed="13.89" length="48.38" shape="564.71,618.53 574.91,615.75 590.09,614.39 604.43,614.92 612.13,617.81"/>
    </edge>
    <edge id=":A1_124" function="internal">
        <lane id=":A1_124_0" index="0" speed="11.26" length="40.79" shape="564.71,618.53 573.72,617.00 586.04,618.64 596.92,622.77 601.60,628.74"/>
    </edge>
    <edge id=":A1_125" function="internal">
        <lane id=":A1_125_0" index="0" speed="8.21" length="26.96" shape="564.71,618.53 571.60,617.05 579.86,618.11 586.13,621.17 587.01,625.69"/>
    </edge>
    <edge id=":A1_126" function="internal">
        <lane id=":A1_126_0" index="0" speed="7.22" length="20.43" shape="584.24,624.09 585.19,621.03 583.05,620.46 577.82,622.40 569.51,626.84"/>
    </edge>
    <edge id=":A1_127" function="internal">
        <lane id=":A1_127_0" index="0" speed="10.69" length="36.60" shape="584.24,624.09 586.22,617.05 582.87,612.02 574.19,609.01 560.17,608.00"/>
    </edge>
    <edge id=":A1_128" function="internal">
        <lane id=":A1_128_0" index="0" speed="13.89" length="48.39" shape="584.24,624.09 586.71,615.04 583.75,605.84 575.34,596.50 561.51,587.01"/>
    </edge>
    <edge id=":A1_129" function="internal">
        <lane id=":A1_129_0" index="0" speed="13.89" length="44.84" shape="584.24,624.09 589.66,612.39 592.00,601.39 591.26,591.07 587.44,581.45"/>
    </edge>
    <edge id=":A1_130" function="internal">
        <lane id=":A1_130_0" index="0" speed="13.89" length="59.29" shape="584.24,624.09 587.51,613.98 592.26,595.58 596.54,577.06 598.40,566.57"/>
    </edge>
    <edge id=":A1_131" function="internal">
        <lane id=":A1_131_0" index="0" speed="13.89" length="63.03" shape="584.24,624.09 615.76,569.51"/>
    </edge>
    <edge id=":A1_132" function="internal">
        <lane id=":A1_132_0" index="0" speed="13.89" length="67.17" shape="584.24,624.09 592.42,615.52 608.28,600.71 624.49,586.24 633.69,578.70"/>
    </edge>
    <edge id=":A1_133" function="internal">
        <lane id=":A1_133_0" index="0" speed="13.89" length="64.16" shape="584.24,624.09 593.28,612.85 605.56,604.82 621.07,600.01 639.83,598.40"/>
    </edge>
    <edge id=":A1_134" function="internal">
        <lane id=":A1_134_0" index="0" speed="13.74" length="43.89" shape="584.24,624.09 592.18,613.34 600.81,607.38 610.13,606.19 620.15,609.79"/>
    </edge>
    <edge id=":A1_135" function="internal">
        <lane id=":A1_135_0" index="0" speed="9.98" length="31.70" shape="584.24,624.09 589.85,618.78 598.19,615.18 606.52,614.46 612.13,617.81"/>
    </edge>
    <edge id=":A1_136" function="internal">
        <lane id=":A1_136_0" index="0" speed="7.29" length="20.87" shape="584.24,624.09 588.22,621.79 594.04,622.23 599.31,624.76 601.60,628.74"/>
    </edge>
    <edge id=":B1_0" function="internal">
        <lane id=":B1_0_0" index="0" speed="7.19" length="9.01" shape="708.05,608.00 705.68,608.32 703.79,609.26 702.39,610.84 701.47,613.05"/>
    </edge>
    <edge id=":B1_1" function="internal">
        <lane id=":B1_1_0" index="0" speed="8.60" length="13.24" shape="708.05,604.80 704.57,605.26 701.79,606.66 699.73,608.97 698.38,612.22"/>
    </edge>
    <edge id=":B1_2" function="internal">
        <lane id=":B1_2_0" index="0" speed="13.89" length="23.12" shape="708.05,604.80 700.32,604.30 694.18,603.20 689.26,602.10 685.20,601.60"/>
    </edge>
    <edge id=":B1_3" function="internal">
        <lane id=":B1_3_0" index="0" speed="10.78" length="6.49" shape="708.05,601.60 704.25,600.11 702.50,598.46"/>
    </edge>
    <edge id=":B1_14" function="internal">
        <lane id=":B1_14_0" index="0" speed="10.78" length="14.81" shape="702.50,598.46 700.26,596.34 696.82,591.32 694.63,586.12"/>
    </edge>
    <edge id=":B1_4" function="internal">
        <lane id=":B1_4_0" index="0" speed="9.90" length="17.82" shape="697.72,585.29 699.68,591.03 702.06,595.12 704.85,597.58 708.05,598.40"/>
    </edge>
    <edge id=":B1_5" function="internal">
        <lane id=":B1_5_0" index="0" speed="13.89" length="27.17" shape="697.72,585.29 698.73,590.18 699.50,596.95 699.55,604.62 698.38,612.22"/>
    </edge>
    <edge id=":B1_6" function="internal">
        <lane id=":B1_6_0" index="0" speed="9.62" length="25.18" shape="697.72,585.29 698.57,592.43 696.77,597.52 692.32,600.58 685.20,601.60"/>
    </edge>
    <edge id=":B1_7" function="internal">
        <lane id=":B1_7_0" index="0" speed="7.08" length="13.04" shape="685.20,592.00 689.92,591.63 693.06,590.53 694.63,588.69 694.63,586.12"/>
    </edge>
    <edge id=":B1_8" function="internal">