<?xml version="1.0" encoding="UTF-8"?>

<!-- generated on 07/12/21 14:19:55 by Eclipse SUMO netedit Version 1.8.0
<configuration xmlns:xsi="http://www.w3.org/2001/XMLSchema-instance" xsi:noNamespaceSchemaLocation="http://sumo.dlr.de/xsd/netconvertConfiguration.xsd">

    <input>
        <osm-files value="C:\Users\Nathaniel\Downloads\boston.osm"/>
    </input>

    <output>
        <output-file value="C:\Users\Nathaniel\GitHub\SUMO-FedRL\configs\boston_inter\boston.net.xml"/>
    </output>

    <projection>
        <proj.utm value="true"/>
    </projection>

    <processing>
        <geometry.remove value="true"/>
    </processing>

    <tls_building>
        <tls.discard-simple value="true"/>
        <tls.guess-signals value="true"/>
    </tls_building>

    <ramp_guessing>
        <ramps.guess value="true"/>
    </ramp_guessing>

    <junctions>
        <junctions.join value="true"/>
    </junctions>

    <report>
        <aggregate-warnings value="5"/>
    </report>

</configuration>
-->

<net version="1.6" junctionCornerDetail="5" limitTurnSpeed="5.50" xmlns:xsi="http://www.w3.org/2001/XMLSchema-instance" xsi:noNamespaceSchemaLocation="http://sumo.dlr.de/xsd/net_file.xsd">

    <location netOffset="-329553.54,-4691406.42" convBoundary="0.00,0.00,1398.45,1699.16" origBoundary="-71.074523,42.356389,-71.050886,42.397001" projParameter="+proj=utm +zone=19 +ellps=WGS84 +datum=WGS84 +units=m +no_defs"/>

    <type id="highway.bridleway" priority="1" numLanes="1" speed="2.78" allow="pedestrian" oneway="1" width="2.00"/>
    <type id="highway.bus_guideway" priority="1" numLanes="1" speed="27.78" allow="bus" oneway="1"/>
    <type id="highway.cycleway" priority="1" numLanes="1" speed="8.33" allow="bicycle" oneway="1" width="1.00"/>
    <type id="highway.footway" priority="1" numLanes="1" speed="2.78" allow="pedestrian" oneway="1" width="2.00"/>
    <type id="highway.ford" priority="1" numLanes="1" speed="2.78" allow="army" oneway="1"/>
    <type id="highway.living_street" priority="2" numLanes="1" speed="2.78" disallow="tram rail_urban rail rail_electric rail_fast ship" oneway="1"/>
    <type id="highway.motorway" priority="14" numLanes="2" speed="39.44" allow="private emergency authority army vip passenger hov taxi bus coach delivery truck trailer motorcycle evehicle custom1 custom2" oneway="1"/>
    <type id="highway.motorway_link" priority="9" numLanes="1" speed="22.22" allow="private emergency authority army vip passenger hov taxi bus coach delivery truck trailer motorcycle evehicle custom1 custom2" oneway="1"/>
    <type id="highway.path" priority="1" numLanes="1" speed="2.78" allow="pedestrian bicycle" oneway="1" width="2.00"/>
    <type id="highway.pedestrian" priority="1" numLanes="1" speed="2.78" allow="pedestrian" oneway="1" width="2.00"/>
    <type id="highway.primary" priority="12" numLanes="2" speed="27.78" disallow="tram rail_urban rail rail_electric rail_fast ship" oneway="1"/>
    <type id="highway.primary_link" priority="7" numLanes="1" speed="22.22" disallow="tram rail_urban rail rail_electric rail_fast ship" oneway="1"/>
    <type id="highway.raceway" priority="15" numLanes="2" speed="83.33" allow="vip" oneway="1"/>
    <type id="highway.residential" priority="3" numLanes="1" speed="13.89" disallow="tram rail_urban rail rail_electric rail_fast ship" oneway="1"/>
    <type id="highway.secondary" priority="11" numLanes="1" speed="27.78" disallow="tram rail_urban rail rail_electric rail_fast ship" oneway="1"/>
    <type id="highway.secondary_link" priority="6" numLanes="1" speed="22.22" disallow="tram rail_urban rail rail_electric rail_fast ship" oneway="1"/>
    <type id="highway.service" priority="1" numLanes="1" speed="5.56" allow="pedestrian delivery bicycle" oneway="1"/>
    <type id="highway.stairs" priority="1" numLanes="1" speed="1.39" allow="pedestrian" oneway="1" width="2.00"/>
    <type id="highway.step" priority="1" numLanes="1" speed="1.39" allow="pedestrian" oneway="1" width="2.00"/>
    <type id="highway.steps" priority="1" numLanes="1" speed="1.39" allow="pedestrian" oneway="1" width="2.00"/>
    <type id="highway.tertiary" priority="10" numLanes="1" speed="22.22" disallow="tram rail_urban rail rail_electric rail_fast ship" oneway="1"/>
    <type id="highway.tertiary_link" priority="5" numLanes="1" speed="22.22" disallow="tram rail_urban rail rail_electric rail_fast ship" oneway="1"/>
    <type id="highway.track" priority="1" numLanes="1" speed="5.56" allow="pedestrian motorcycle moped bicycle" oneway="1"/>
    <type id="highway.trunk" priority="13" numLanes="2" speed="27.78" disallow="pedestrian bicycle tram rail_urban rail rail_electric rail_fast ship" oneway="1"/>
    <type id="highway.trunk_link" priority="8" numLanes="1" speed="22.22" disallow="pedestrian bicycle tram rail_urban rail rail_electric rail_fast ship" oneway="1"/>
    <type id="highway.unclassified" priority="4" numLanes="1" speed="13.89" disallow="tram rail_urban rail rail_electric rail_fast ship" oneway="1"/>
    <type id="highway.unsurfaced" priority="1" numLanes="1" speed="8.33" disallow="tram rail_urban rail rail_electric rail_fast ship" oneway="1"/>
    <type id="railway.highspeed" priority="21" numLanes="1" speed="69.44" allow="rail_fast" oneway="1"/>
    <type id="railway.light_rail" priority="19" numLanes="1" speed="27.78" allow="rail_urban" oneway="1"/>
    <type id="railway.preserved" priority="16" numLanes="1" speed="27.78" allow="rail" oneway="1"/>
    <type id="railway.rail" priority="20" numLanes="1" speed="44.44" allow="rail" oneway="1"/>
    <type id="railway.subway" priority="18" numLanes="1" speed="27.78" allow="rail_urban" oneway="1"/>
    <type id="railway.tram" priority="17" numLanes="1" speed="13.89" allow="tram" oneway="1"/>

    <edge id=":1047230635_0" function="internal">
        <lane id=":1047230635_0_0" index="0" disallow="tram rail_urban rail rail_electric rail_fast ship" speed="11.18" length="5.23" shape="484.43,979.65 481.78,984.02"/>
        <lane id=":1047230635_0_1" index="1" disallow="tram rail_urban rail rail_electric rail_fast ship" speed="11.18" length="5.23" shape="481.75,977.89 478.98,982.46"/>
    </edge>
    <edge id=":1153869611_0" function="internal">
        <lane id=":1153869611_0_0" index="0" allow="pedestrian delivery bicycle" speed="6.78" length="6.05" shape="802.09,581.32 803.23,581.75 804.57,581.76 806.10,581.36 807.83,580.54"/>
    </edge>
    <edge id=":1153869611_1" function="internal">
        <lane id=":1153869611_1_0" index="0" disallow="tram rail_urban rail rail_electric rail_fast ship" speed="11.18" length="6.62" shape="802.09,581.32 807.73,584.82"/>
        <lane id=":1153869611_1_1" index="1" disallow="tram rail_urban rail rail_electric rail_fast ship" speed="11.18" length="6.62" shape="800.43,584.05 806.04,587.54"/>
    </edge>
    <edge id=":1153869616_0" function="internal">
        <lane id=":1153869616_0_0" index="0" allow="pedestrian delivery bicycle" speed="7.06" length="6.23" shape="862.64,614.64 862.77,616.64 863.15,618.24 863.78,619.46 864.67,620.28"/>
    </edge>
    <edge id=":1153869616_1" function="internal">
        <lane id=":1153869616_1_0" index="0" disallow="tram rail_urban rail rail_electric rail_fast ship" speed="11.18" length="6.77" shape="858.92,616.71 864.67,620.28"/>
        <lane id=":1153869616_1_1" index="1" disallow="tram rail_urban rail rail_electric rail_fast ship" speed="11.18" length="6.77" shape="857.23,619.42 862.98,623.00"/>
    </edge>
    <edge id=":1153871303_0" function="internal">
        <lane id=":1153871303_0_0" index="0" disallow="tram rail_urban rail rail_electric rail_fast ship" speed="11.18" length="3.54" shape="1049.98,380.82 1049.34,384.29"/>
        <lane id=":1153871303_0_1" index="1" disallow="tram rail_urban rail rail_electric rail_fast ship" speed="11.18" length="3.54" shape="1046.83,380.24 1046.19,383.72"/>
        <lane id=":1153871303_0_2" index="2" disallow="tram rail_urban rail rail_electric rail_fast ship" speed="11.18" length="3.54" shape="1043.68,379.66 1043.05,383.14"/>
    </edge>
    <edge id=":1153871305_0" function="internal">
        <lane id=":1153871305_0_0" index="0" disallow="tram rail_urban rail rail_electric rail_fast ship" speed="11.18" length="5.07" shape="1030.58,380.97 1031.49,375.93"/>
        <lane id=":1153871305_0_1" index="1" disallow="tram rail_urban rail rail_electric rail_fast ship" speed="11.18" length="5.07" shape="1033.73,381.51 1034.63,376.52"/>
        <lane id=":1153871305_0_2" index="2" disallow="tram rail_urban rail rail_electric rail_fast ship" speed="11.18" length="5.07" shape="1036.89,382.06 1037.78,377.11"/>
    </edge>
    <edge id=":1196424587_0" function="internal">
        <lane id=":1196424587_0_0" index="0" allow="pedestrian delivery bicycle" speed="11.18" length="6.18" shape="1060.98,577.94 1060.13,571.82"/>
    </edge>
    <edge id=":1196424587_1" function="internal">
        <lane id=":1196424587_1_0" index="0" allow="pedestrian delivery bicycle" speed="3.65" length="4.67" shape="1060.98,577.94 1061.62,576.65 1062.36,576.15 1063.20,576.44 1064.15,577.53"/>
    </edge>
    <edge id=":1196424587_2" function="internal">
        <lane id=":1196424587_2_0" index="0" allow="pedestrian delivery bicycle" speed="11.18" length="6.28" shape="1063.28,571.31 1064.15,577.53"/>
    </edge>
    <edge id=":1196424587_3" function="internal">
        <lane id=":1196424587_3_0" index="0" allow="pedestrian delivery bicycle" speed="3.65" length="4.67" shape="1063.28,571.31 1062.69,572.62 1061.96,573.14 1061.11,572.88 1060.13,571.82"/>
    </edge>
    <edge id=":1196431205_0" function="internal">
        <lane id=":1196431205_0_0" index="0" disallow="tram rail_urban rail rail_electric rail_fast ship" speed="3.65" length="4.67" shape="1144.79,467.30 1145.27,468.66 1145.11,469.54 1144.31,469.94 1142.87,469.86"/>
    </edge>
    <edge id=":1411414543_0" function="internal">
        <lane id=":1411414543_0_0" index="0" disallow="tram rail_urban rail rail_electric rail_fast ship" speed="11.18" length="6.72" shape="993.58,550.40 996.03,544.26"/>
        <lane id=":1411414543_0_1" index="1" disallow="tram rail_urban rail rail_electric rail_fast ship" speed="11.18" length="6.72" shape="996.54,551.64 999.02,545.39"/>
        <lane id=":1411414543_0_2" index="2" disallow="tram rail_urban rail rail_electric rail_fast ship" speed="11.18" length="6.72" shape="999.49,552.87 1002.02,546.53"/>
    </edge>
    <edge id=":1411414581_0" function="internal">
        <lane id=":1411414581_0_0" index="0" allow="pedestrian delivery bicycle" speed="5.56" length="7.06" shape="809.27,579.73 815.43,576.29"/>
    </edge>
    <edge id=":1411414619_0" function="internal">
        <lane id=":1411414619_0_0" index="0" disallow="tram rail_urban rail rail_electric rail_fast ship" speed="11.18" length="5.09" shape="1012.02,552.27 1010.18,557.07"/>
        <lane id=":1411414619_0_1" index="1" disallow="tram rail_urban rail rail_electric rail_fast ship" speed="11.18" length="5.09" shape="1009.02,551.17 1007.21,555.88"/>
    </edge>
    <edge id=":1411414710_0" function="internal">
        <lane id=":1411414710_0_0" index="0" disallow="tram rail_urban rail rail_electric rail_fast ship" speed="11.18" length="3.89" shape="1045.58,404.94 1044.87,408.82"/>
        <lane id=":1411414710_0_1" index="1" disallow="tram rail_urban rail rail_electric rail_fast ship" speed="11.18" length="3.89" shape="1042.43,404.37 1041.73,408.20"/>
        <lane id=":1411414710_0_2" index="2" disallow="tram rail_urban rail rail_electric rail_fast ship" speed="11.18" length="3.89" shape="1039.28,403.80 1038.59,407.59"/>
    </edge>
    <edge id=":1522224052_0" function="internal">
        <lane id=":1522224052_0_0" index="0" disallow="tram rail_urban rail rail_electric rail_fast ship" speed="5.91" length="7.60" shape="465.95,526.66 466.20,528.32 467.19,529.51 468.93,530.23 471.41,530.47"/>
    </edge>
    <edge id=":1522224052_1" function="internal">
        <lane id=":1522224052_1_0" index="0" disallow="tram rail_urban rail rail_electric rail_fast ship" speed="11.18" length="11.21" shape="460.20,530.42 471.41,530.47"/>
        <lane id=":1522224052_1_1" index="1" disallow="tram rail_urban rail rail_electric rail_fast ship" speed="11.18" length="11.21" shape="460.18,533.62 471.39,533.67"/>
        <lane id=":1522224052_1_2" index="2" disallow="tram rail_urban rail rail_electric rail_fast ship" speed="11.18" length="11.21" shape="460.16,536.82 471.38,536.87"/>
    </edge>
    <edge id=":1522224084_0" function="internal">
        <lane id=":1522224084_0_0" index="0" disallow="tram rail_urban rail rail_electric rail_fast ship" speed="11.18" length="3.51" shape="566.29,334.98 566.89,338.43"/>
    </edge>
    <edge id=":1522224095_0" function="internal">
        <lane id=":1522224095_0_0" index="0" allow="pedestrian delivery bicycle" speed="5.07" length="5.05" shape="528.82,530.17 529.02,531.55 529.61,532.54 530.58,533.13 531.93,533.32"/>
    </edge>
    <edge id=":1522224095_1" function="internal">
        <lane id=":1522224095_1_0" index="0" allow="pedestrian delivery bicycle" speed="3.65" length="4.67" shape="528.82,530.17 528.03,531.37 527.23,531.78 526.43,531.38 525.62,530.19"/>
    </edge>
    <edge id=":1522224095_2" function="internal">
        <lane id=":1522224095_2_0" index="0" allow="pedestrian delivery bicycle" speed="5.02" length="5.02" shape="522.50,533.27 523.87,533.10 524.85,532.52 525.43,531.55 525.62,530.19"/>
    </edge>
    <edge id=":1522224095_3" function="internal">
        <lane id=":1522224095_3_0" index="0" disallow="tram rail_urban rail rail_electric rail_fast ship" speed="11.18" length="9.46" shape="522.50,533.27 531.93,533.32"/>
        <lane id=":1522224095_3_1" index="1" disallow="tram rail_urban rail rail_electric rail_fast ship" speed="11.18" length="9.46" shape="522.46,536.47 531.95,536.52"/>
    </edge>
    <edge id=":1522224098_0" function="internal">
        <lane id=":1522224098_0_0" index="0" disallow="tram rail_urban rail rail_electric rail_fast ship" speed="11.18" length="4.97" shape="523.79,820.18 521.99,815.55"/>
    </edge>
    <edge id=":1522224098_1" function="internal">
        <lane id=":1522224098_1_0" index="0" disallow="tram rail_urban rail rail_electric rail_fast ship" speed="3.65" length="4.67" shape="523.79,820.18 524.08,818.77 524.68,818.10 525.57,818.18 526.76,818.99"/>
    </edge>
    <edge id=":1522224098_2" function="internal">
        <lane id=":1522224098_2_0" index="0" disallow="tram rail_urban rail rail_electric rail_fast ship" speed="11.18" length="4.87" shape="527.98,813.30 529.73,817.80"/>
        <lane id=":1522224098_2_1" index="1" disallow="tram rail_urban rail rail_electric rail_fast ship" speed="11.18" length="4.87" shape="524.99,814.42 526.76,818.99"/>
    </edge>
    <edge id=":1522224098_4" function="internal">
        <lane id=":1522224098_4_0" index="0" disallow="tram rail_urban rail rail_electric rail_fast ship" speed="3.65" length="4.67" shape="524.99,814.42 524.66,815.83 524.05,816.49 523.16,816.39 521.99,815.55"/>
    </edge>
    <edge id=":1522224143_0" function="internal">
        <lane id=":1522224143_0_0" index="0" disallow="tram rail_urban rail rail_electric rail_fast ship" speed="11.18" length="8.18" shape="753.01,474.99 751.31,476.71 750.40,478.15 749.48,479.58 747.74,481.25"/>
        <lane id=":1522224143_0_1" index="1" disallow="tram rail_urban rail rail_electric rail_fast ship" speed="11.18" length="8.18" shape="750.99,472.51 749.30,474.22 748.40,475.65 747.50,477.07 745.77,478.73"/>
        <lane id=":1522224143_0_2" index="2" disallow="tram rail_urban rail rail_electric rail_fast ship" speed="11.18" length="8.18" shape="750.99,472.51 748.99,473.82 747.42,474.39 745.83,474.94 743.81,476.21"/>
    </edge>
    <edge id=":1522224270_0" function="internal">
        <lane id=":1522224270_0_0" index="0" disallow="tram rail_urban rail rail_electric rail_fast ship" speed="11.18" length="5.37" shape="590.40,548.16 584.99,548.54"/>
        <lane id=":1522224270_0_1" index="1" disallow="tram rail_urban rail rail_electric rail_fast ship" speed="11.18" length="5.37" shape="590.16,544.97 584.85,545.34"/>
    </edge>
    <edge id=":1522224472_0" function="internal">
        <lane id=":1522224472_0_0" index="0" disallow="tram rail_urban rail rail_electric rail_fast ship" speed="11.18" length="6.95" shape="565.05,327.95 565.24,330.00 565.47,331.39 565.79,332.77 566.25,334.78"/>
    </edge>
    <edge id=":1522224472_1" function="internal">
        <lane id=":1522224472_1_0" index="0" disallow="tram rail_urban rail rail_electric rail_fast ship" speed="11.18" length="8.65" shape="565.05,327.95 565.14,330.48 564.86,332.23 564.10,333.86 562.71,336.00"/>
    </edge>
    <edge id=":1522515158_0" function="internal">
        <lane id=":1522515158_0_0" index="0" disallow="tram rail_urban rail rail_electric rail_fast ship" speed="3.65" length="4.67" shape="233.96,792.31 232.75,791.52 232.35,790.72 232.74,789.92 233.93,789.11"/>
    </edge>
    <edge id=":1533380490_0" function="internal">
        <lane id=":1533380490_0_0" index="0" disallow="tram rail_urban rail rail_electric rail_fast ship" speed="11.18" length="5.48" shape="764.22,739.85 764.61,738.27 764.81,737.17 764.86,736.06 764.80,734.44"/>
    </edge>
    <edge id=":1533380492_0" function="internal">
        <lane id=":1533380492_0_0" index="0" disallow="tram rail_urban rail rail_electric rail_fast ship" speed="11.08" length="13.35" shape="762.26,722.61 760.77,719.33 758.81,716.66 756.38,714.60 753.48,713.14"/>
    </edge>
    <edge id=":1533380492_1" function="internal">
        <lane id=":1533380492_1_0" index="0" disallow="tram rail_urban rail rail_electric rail_fast ship" speed="7.33" length="17.98" shape="762.26,722.61 760.67,716.33 761.14,712.45 763.66,710.95 768.23,711.85"/>
    </edge>
    <edge id=":1533380492_2" function="internal">
        <lane id=":1533380492_2_0" index="0" disallow="tram rail_urban rail rail_electric rail_fast ship" speed="11.18" length="13.38" shape="766.00,717.84 753.48,713.14"/>
        <lane id=":1533380492_2_1" index="1" disallow="tram rail_urban rail rail_electric rail_fast ship" speed="11.18" length="13.38" shape="767.11,714.84 754.58,710.14"/>
    </edge>
    <edge id=":1533380492_4" function="internal">
        <lane id=":1533380492_4_0" index="0" disallow="tram rail_urban rail rail_electric rail_fast ship" speed="3.65" length="2.34" shape="767.11,714.84 766.27,713.68 766.17,712.79"/>
    </edge>
    <edge id=":1533380492_8" function="internal">
        <lane id=":1533380492_8_0" index="0" disallow="tram rail_urban rail rail_electric rail_fast ship" speed="3.65" length="2.34" shape="766.17,712.79 766.83,712.18 768.23,711.85"/>
    </edge>
    <edge id=":1533380492_5" function="internal">
        <lane id=":1533380492_5_0" index="0" disallow="tram rail_urban rail rail_electric rail_fast ship" speed="11.18" length="13.42" shape="756.78,704.13 769.35,708.85"/>
        <lane id=":1533380492_5_1" index="1" disallow="tram rail_urban rail rail_electric rail_fast ship" speed="11.18" length="13.42" shape="755.68,707.13 768.23,711.85"/>
    </edge>
    <edge id=":1533380492_7" function="internal">
        <lane id=":1533380492_7_0" index="0" disallow="tram rail_urban rail rail_electric rail_fast ship" speed="3.65" length="2.34" shape="755.68,707.13 756.53,708.30 756.63,709.19"/>
    </edge>
    <edge id=":1533380492_9" function="internal">
        <lane id=":1533380492_9_0" index="0" disallow="tram rail_urban rail rail_electric rail_fast ship" speed="3.65" length="2.34" shape="756.63,709.19 755.98,709.80 754.58,710.14"/>
    </edge>
    <edge id=":1533380497_0" function="internal">
        <lane id=":1533380497_0_0" index="0" disallow="tram rail_urban rail rail_electric rail_fast ship" speed="8.81" length="9.27" shape="756.83,751.19 759.09,750.08 760.86,748.63 762.16,746.85 762.98,744.74"/>
    </edge>
    <edge id=":1533380497_1" function="internal">
        <lane id=":1533380497_1_0" index="0" disallow="tram rail_urban rail rail_electric rail_fast ship" speed="11.18" length="9.18" shape="756.83,751.19 765.41,747.93"/>
        <lane id=":1533380497_1_1" index="1" disallow="tram rail_urban rail rail_electric rail_fast ship" speed="11.18" length="9.18" shape="757.97,754.18 766.54,750.93"/>
    </edge>
    <edge id=":1652155995_0" function="internal">
        <lane id=":1652155995_0_0" index="0" disallow="tram rail_urban rail rail_electric rail_fast ship" speed="10.50" length="11.89" shape="881.51,721.48 878.52,723.53 876.27,725.67 874.78,727.92 874.03,730.27"/>
    </edge>
    <edge id=":1652155995_1" function="internal">
        <lane id=":1652155995_1_0" index="0" disallow="tram rail_urban rail rail_electric rail_fast ship" speed="11.18" length="11.81" shape="881.51,721.48 878.35,723.17 876.04,724.02 873.64,724.66 870.20,725.73"/>
        <lane id=":1652155995_1_1" index="1" disallow="tram rail_urban rail rail_electric rail_fast ship" speed="11.18" length="11.81" shape="879.88,718.73 876.89,720.32 874.69,721.11 872.41,721.70 869.15,722.70"/>
    </edge>
    <edge id=":1831651816_0" function="internal">
        <lane id=":1831651816_0_0" index="0" disallow="tram rail_urban rail rail_electric rail_fast ship" speed="11.18" length="7.89" shape="529.88,841.14 529.11,839.05 529.28,837.40 529.55,835.70 529.10,833.45"/>
    </edge>
    <edge id=":1831651816_1" function="internal">
        <lane id=":1831651816_1_0" index="0" disallow="tram rail_urban rail rail_electric rail_fast ship" speed="5.13" length="5.95" shape="532.62,839.48 533.13,838.88 534.84,838.38 536.81,837.98 538.15,837.66"/>
    </edge>
    <edge id=":1831651816_2" function="internal">
        <lane id=":1831651816_2_0" index="0" disallow="tram rail_urban rail rail_electric rail_fast ship" speed="2.62" length="1.23" shape="532.62,839.48 532.92,839.70 533.01,839.92 532.89,840.12 532.56,840.31"/>
    </edge>
    <edge id=":1831651816_3" function="internal">
        <lane id=":1831651816_3_0" index="0" disallow="tram rail_urban rail rail_electric rail_fast ship" speed="4.76" length="4.29" shape="535.04,831.07 535.37,832.08 535.81,833.35 536.36,834.39 537.01,834.67"/>
    </edge>
    <edge id=":1831651816_4" function="internal">
        <lane id=":1831651816_4_0" index="0" disallow="tram rail_urban rail rail_electric rail_fast ship" speed="11.18" length="8.68" shape="535.04,831.07 535.61,833.65 535.43,835.59 535.38,837.46 536.36,839.82"/>
        <lane id=":1831651816_4_1" index="1" disallow="tram rail_urban rail rail_electric rail_fast ship" speed="11.18" length="8.68" shape="532.07,832.26 532.43,834.65 531.96,836.50 531.66,838.24 532.56,840.31"/>
    </edge>
    <edge id=":1831651816_6" function="internal">
        <lane id=":1831651816_6_0" index="0" disallow="tram rail_urban rail rail_electric rail_fast ship" speed="3.65" length="4.67" shape="532.07,832.26 531.77,833.67 531.18,834.34 530.29,834.27 529.10,833.45"/>
    </edge>
    <edge id=":1963978754_0" function="internal">
        <lane id=":1963978754_0_0" index="0" disallow="tram rail_urban rail rail_electric rail_fast ship" speed="11.18" length="9.44" shape="681.40,418.98 680.13,409.63"/>
    </edge>
    <edge id=":1963978754_1" function="internal">
        <lane id=":1963978754_1_0" index="0" allow="pedestrian delivery bicycle" speed="6.54" length="5.46" shape="681.40,418.98 681.33,416.05 682.09,413.92 682.30,413.74"/>
    </edge>
    <edge id=":1963978754_2" function="internal">
        <lane id=":1963978754_2_0" index="0" disallow="tram rail_urban rail rail_electric rail_fast ship" speed="3.65" length="2.34" shape="681.40,418.98 682.03,417.68 682.77,417.17"/>
    </edge>
    <edge id=":1963978754_9" function="internal">
        <lane id=":1963978754_9_0" index="0" allow="pedestrian delivery bicycle" speed="6.54" length="4.31" shape="682.30,413.74 683.69,412.58 686.12,412.02"/>
    </edge>
    <edge id=":1963978754_10" function="internal">
        <lane id=":1963978754_10_0" index="0" disallow="tram rail_urban rail rail_electric rail_fast ship" speed="3.65" length="2.34" shape="682.77,417.17 683.62,417.46 684.57,418.54"/>
    </edge>
    <edge id=":1963978754_3" function="internal">
        <lane id=":1963978754_3_0" index="0" allow="pedestrian delivery bicycle" speed="4.62" length="4.31" shape="686.30,415.22 685.37,415.47 684.77,416.11 684.50,417.13 684.57,418.54"/>
    </edge>
    <edge id=":1963978754_4" function="internal">
        <lane id=":1963978754_4_0" index="0" allow="pedestrian delivery bicycle" speed="6.79" length="9.34" shape="686.30,415.22 683.90,414.98 682.07,413.97 680.81,412.19 680.13,409.63"/>
    </edge>
    <edge id=":1963978754_5" function="internal">
        <lane id=":1963978754_5_0" index="0" allow="pedestrian delivery bicycle" speed="3.65" length="4.67" shape="686.30,415.22 685.06,414.48 684.62,413.71 684.97,412.89 686.12,412.02"/>
    </edge>
    <edge id=":1963978754_6" function="internal">
        <lane id=":1963978754_6_0" index="0" allow="pedestrian delivery bicycle" speed="4.93" length="4.47" shape="683.30,409.20 683.62,410.49 684.20,411.38 685.04,411.90 686.12,412.02"/>
    </edge>
    <edge id=":1963978754_7" function="internal">
        <lane id=":1963978754_7_0" index="0" disallow="tram rail_urban rail rail_electric rail_fast ship" speed="11.18" length="9.43" shape="683.30,409.20 684.57,418.54"/>
    </edge>
    <edge id=":1963978754_8" function="internal">
        <lane id=":1963978754_8_0" index="0" disallow="tram rail_urban rail rail_electric rail_fast ship" speed="3.65" length="2.34" shape="683.30,409.20 682.66,410.50 681.92,411.00"/>
    </edge>
    <edge id=":1963978754_11" function="internal">
        <lane id=":1963978754_11_0" index="0" disallow="tram rail_urban rail rail_electric rail_fast ship" speed="3.65" length="2.34" shape="681.92,411.00 681.08,410.71 680.13,409.63"/>
    </edge>
    <edge id=":1972361170_0" function="internal">
        <lane id=":1972361170_0_0" index="0" allow="pedestrian delivery bicycle" speed="4.43" length="3.73" shape="879.41,201.96 878.99,201.45 878.29,201.26 877.30,201.41 876.04,201.89"/>
    </edge>
    <edge id=":1972361170_1" function="internal">
        <lane id=":1972361170_1_0" index="0" allow="pedestrian delivery bicycle" speed="6.52" length="9.35" shape="882.37,200.74 881.19,198.98 879.45,198.13 877.16,198.19 874.31,199.16"/>
    </edge>
    <edge id=":2034744517_0" function="internal">
        <lane id=":2034744517_0_0" index="0" disallow="tram rail_urban rail rail_electric rail_fast ship" speed="6.25" length="8.54" shape="514.99,340.78 512.51,340.91 510.71,341.72 509.60,343.22 509.19,345.40"/>
    </edge>
    <edge id=":2034744517_1" function="internal">
        <lane id=":2034744517_1_0" index="0" disallow="tram rail_urban rail rail_electric rail_fast ship" speed="11.18" length="8.50" shape="514.99,340.78 506.52,340.09"/>
    </edge>
    <edge id=":2446048089_0" function="internal">
        <lane id=":2446048089_0_0" index="0" allow="rail_urban" speed="17.24" length="0.10" shape="845.85,332.54 845.85,332.54"/>
    </edge>
    <edge id=":2628762597_0" function="internal">
        <lane id=":2628762597_0_0" index="0" allow="pedestrian delivery bicycle" speed="3.65" length="4.67" shape="445.82,920.66 446.24,919.28 446.89,918.66 447.77,918.81 448.89,919.73"/>
    </edge>
    <edge id=":2628762600_0" function="internal">
        <lane id=":2628762600_0_0" index="0" disallow="tram rail_urban rail rail_electric rail_fast ship" speed="11.18" length="9.82" shape="501.85,953.01 496.54,961.23"/>
        <lane id=":2628762600_0_1" index="1" disallow="tram rail_urban rail rail_electric rail_fast ship" speed="11.18" length="9.82" shape="499.21,951.20 493.87,959.47"/>
    </edge>
    <edge id=":2628762600_2" function="internal">
        <lane id=":2628762600_2_0" index="0" allow="pedestrian delivery bicycle" speed="8.37" length="10.28" shape="499.21,951.20 497.36,953.54 495.69,954.78 493.69,955.60 490.82,956.68"/>
    </edge>
    <edge id=":2656961560_0" function="internal">
        <lane id=":2656961560_0_0" index="0" allow="pedestrian delivery bicycle" speed="2.24" length="4.67" shape="517.25,1061.46 517.76,1062.81 517.61,1063.69 516.82,1064.11 515.38,1064.06"/>
    </edge>
    <edge id=":2656961563_0" function="internal">
        <lane id=":2656961563_0_0" index="0" allow="pedestrian delivery bicycle" speed="2.24" length="12.60" shape="508.94,1059.91 505.61,1059.63 502.71,1059.88 499.80,1060.40 496.44,1060.88"/>
    </edge>
    <edge id=":2656961563_1" function="internal">
        <lane id=":2656961563_1_0" index="0" allow="pedestrian delivery bicycle" speed="2.24" length="12.08" shape="508.94,1059.91 505.10,1058.81 502.94,1057.15 502.45,1054.90 503.64,1052.07"/>
    </edge>
    <edge id=":2656961563_2" function="internal">
        <lane id=":2656961563_2_0" index="0" allow="pedestrian delivery bicycle" speed="2.24" length="4.71" shape="508.94,1059.91 507.77,1059.04 507.41,1058.22 507.85,1057.43 509.09,1056.68"/>
    </edge>
    <edge id=":2656961563_3" function="internal">
        <lane id=":2656961563_3_0" index="0" allow="pedestrian delivery bicycle" speed="2.24" length="6.42" shape="507.54,1051.95 506.66,1053.75 506.62,1055.14 507.43,1056.12 509.09,1056.68"/>
    </edge>
    <edge id=":2656961563_4" function="internal">
        <lane id=":2656961563_4_0" index="0" disallow="tram rail_urban rail rail_electric rail_fast ship" speed="2.24" length="14.68" shape="507.54,1051.95 504.81,1055.64 502.05,1058.36 499.26,1060.11 496.44,1060.88"/>
    </edge>
    <edge id=":2656961563_5" function="internal">
        <lane id=":2656961563_5_0" index="0" disallow="tram rail_urban rail rail_electric rail_fast ship" speed="2.24" length="5.69" shape="507.54,1051.95 506.61,1053.44 505.65,1053.96 504.66,1053.50 503.64,1052.07"/>
    </edge>
    <edge id=":2656961563_6" function="internal">