<?xml version="1.0" encoding="UTF-8"?>

<!-- generated on Sun Aug 22 23:04:08 2021 by Eclipse SUMO netgenerate Version 1.6.0
<configuration xmlns:xsi="http://www.w3.org/2001/XMLSchema-instance" xsi:noNamespaceSchemaLocation="http://sumo.dlr.de/xsd/netgenerateConfiguration.xsd">

    <grid_network>
        <grid value="true"/>
        <grid.number value="2"/>
        <grid.length value="100"/>
    </grid_network>

    <output>
        <output-file value="grid.net.xml"/>
    </output>

    <building_defaults>
        <default.lanenumber value="3"/>
        <default-junction-type value="traffic_light"/>
    </building_defaults>

    <junctions>
        <no-turnarounds value="true"/>
    </junctions>

</configuration>
-->

<net version="1.6" junctionCornerDetail="5" limitTurnSpeed="5.50" xmlns:xsi="http://www.w3.org/2001/XMLSchema-instance" xsi:noNamespaceSchemaLocation="http://sumo.dlr.de/xsd/net_file.xsd">

    <location netOffset="0.00,0.00" convBoundary="0.00,0.00,100.00,100.00" origBoundary="0.00,0.00,100.00,100.00" projParameter="!"/>

    <edge id=":A0_0" function="internal">
        <lane id=":A0_0_0" index="0" speed="11.12" length="28.38" shape="-8.00,9.60 -6.90,1.90 -3.60,-3.60 1.90,-6.90 9.60,-8.00"/>
    </edge>
    <edge id=":A0_1" function="internal">
        <lane id=":A0_1_0" index="0" speed="10.10" length="23.22" shape="-4.80,9.60 -3.90,3.30 -1.20,-1.20 3.30,-3.90 9.60,-4.80"/>
    </edge>
    <edge id=":A0_2" function="internal">
        <lane id=":A0_2_0" index="0" speed="8.96" length="18.06" shape="-1.60,9.60 -0.90,4.70 1.20,1.20 4.70,-0.90 9.60,-1.60"/>
    </edge>
    <edge id=":A0_3" function="internal">
        <lane id=":A0_3_0" index="0" speed="3.90" length="2.58" shape="9.60,8.00 8.90,8.10 8.40,8.40 8.10,8.90 8.00,9.60"/>
    </edge>
    <edge id=":A0_4" function="internal">
        <lane id=":A0_4_0" index="0" speed="6.08" length="7.74" shape="9.60,4.80 7.50,5.10 6.00,6.00 5.10,7.50 4.80,9.60"/>
    </edge>
    <edge id=":A0_5" function="internal">
        <lane id=":A0_5_0" index="0" speed="7.66" length="12.90" shape="9.60,1.60 6.10,2.10 3.60,3.60 2.10,6.10 1.60,9.60"/>
    </edge>
    <edge id=":A1_0" function="internal">
        <lane id=":A1_0_0" index="0" speed="11.12" length="28.38" shape="9.60,108.00 1.90,106.90 -3.60,103.60 -6.90,98.10 -8.00,90.40"/>
    </edge>
    <edge id=":A1_1" function="internal">
        <lane id=":A1_1_0" index="0" speed="10.10" length="23.22" shape="9.60,104.80 3.30,103.90 -1.20,101.20 -3.90,96.70 -4.80,90.40"/>
    </edge>
    <edge id=":A1_2" function="internal">
        <lane id=":A1_2_0" index="0" speed="8.96" length="18.06" shape="9.60,101.60 4.70,100.90 1.20,98.80 -0.90,95.30 -1.60,90.40"/>
    </edge>
    <edge id=":A1_3" function="internal">
        <lane id=":A1_3_0" index="0" speed="3.90" length="2.58" shape="8.00,90.40 8.10,91.10 8.40,91.60 8.90,91.90 9.60,92.00"/>
    </edge>
    <edge id=":A1_4" function="internal">
        <lane id=":A1_4_0" index="0" speed="6.08" length="7.74" shape="4.80,90.40 5.10,92.50 6.00,94.00 7.50,94.90 9.60,95.20"/>
    </edge>
    <edge id=":A1_5" function="internal">
        <lane id=":A1_5_0" index="0" speed="7.66" length="12.90" shape="1.60,90.40 2.10,93.90 3.60,96.40 6.10,97.90 9.60,98.40"/>
    </edge>
    <edge id=":B0_0" function="internal">
        <lane id=":B0_0_0" index="0" speed="3.90" length="2.58" shape="92.00,9.60 91.90,8.90 91.60,8.40 91.10,8.10 90.40,8.00"/>
    </edge>
    <edge id=":B0_1" function="internal">
        <lane id=":B0_1_0" index="0" speed="6.08" length="7.74" shape="95.20,9.60 94.90,7.50 94.00,6.00 92.50,5.10 90.40,4.80"/>
    </edge>
    <edge id=":B0_2" function="internal">
        <lane id=":B0_2_0" index="0" speed="7.66" length="12.90" shape="98.40,9.60 97.90,6.10 96.40,3.60 93.90,2.10 90.40,1.60"/>
    </edge>
    <edge id=":B0_3" function="internal">
        <lane id=":B0_3_0" index="0" speed="11.12" length="28.38" shape="90.40,-8.00 98.10,-6.90 103.60,-3.60 106.90,1.90 108.00,9.60"/>
    </edge>
    <edge id=":B0_4" function="internal">
        <lane id=":B0_4_0" index="0" speed="10.10" length="23.22" shape="90.40,-4.80 96.70,-3.90 101.20,-1.20 103.90,3.30 104.80,9.60"/>
    </edge>
    <edge id=":B0_5" function="internal">
        <lane id=":B0_5_0" index="0" speed="8.96" length="18.06" shape="90.40,-1.60 95.30,-0.90 98.80,1.20 100.90,4.70 101.60,9.60"/>
    </edge>
    <edge id=":B1_0" function="internal">
        <lane id=":B1_0_0" index="0" speed="11.12" length="28.38" shape="108.00,90.40 106.90,98.10 103.60,103.60 98.10,106.90 90.40,108.00"/>
    </edge>
    <edge id=":B1_1" function="internal">
        <lane id=":B1_1_0" index="0" speed="10.10" length="23.22" shape="104.80,90.40 103.90,96.70 101.20,101.20 96.70,103.90 90.40,104.80"/>
    </edge>
    <edge id=":B1_2" function="internal">
        <lane id=":B1_2_0" index="0" speed="8.96" length="18.06" shape="101.60,90.40 100.90,95.30 98.80,98.80 95.30,100.90 90.40,101.60"/>
    </edge>
    <edge id=":B1_3" function="internal">
        <lane id=":B1_3_0" index="0" speed="3.90" length="2.58" shape="90.40,92.00 91.10,91.90 91.60,91.60 91.90,91.10 92.00,90.40"/>
    </edge>
    <edge id=":B1_4" function="internal">
        <lane id=":B1_4_0" index="0" speed="6.08" length="7.74" shape="90.40,95.20 92.50,94.90 94.00,94.00 94.90,92.50 95.20,90.40"/>
    </edge>
    <edge id=":B1_5" function="internal">
        <lane id=":B1_5_0" index="0" speed="7.66" length="12.90" shape="90.40,98.40 93.90,97.90 96.40,96.40 97.90,93.90 98.40,90.40"/>
    </edge>

    <edge id="A0A1" from="A0" to="A1" priority="-1">
        <lane id="A0A1_0" index="0" speed="13.89" length="80.80" shape="8.00,9.60 8.00,90.40"/>
        <lane id="A0A1_1" index="1" speed="13.89" length="80.80" shape="4.80,9.60 4.80,90.40"/>
        <lane id="A0A1_2" index="2" speed="13.89" length="80.80" shape="1.60,9.60 1.60,90.40"/>
    </edge>
    <edge id="A0B0" from="A0" to="B0" priority="-1">
        <lane id="A0B0_0" index="0" speed="13.89" length="80.80" shape="9.60,-8.00 90.40,-8.00"/>
        <lane id="A0B0_1" index="1" speed="13.89" length="80.80" shape="9.60,-4.80 90.40,-4.80"/>
        <lane id="A0B0_2" index="2" speed="13.89" length="80.80" shape="9.60,-1.60 90.40,-1.60"/>
    </edge>
    <edge id="A1A0" from="A1" to="A0" priority="-1">
        <lane id="A1A0_0" index="0" speed="13.89" length="80.80" shape="-8.00,90.40 -8.00,9.60"/>
        <lane id="A1A0_1" index="1" speed="13.89" length="80.80" shape="-4.80,90.40 -4.80,9.60"/>
        <lane id="A1A0_2" index="2" speed="13.89" length="80.80" shape="-1.60,90.40 -1.60,9.60"/>
    </edge>
    <edge id="A1B1" from="A1" to="B1" priority="-1">
        <lane id="A1B1_0" index="0" speed="13.89" length="80.80" shape="9.60,92.00 90.40,92.00"/>
        <lane id="A1B1_1" index="1" speed="13.89" length="80.80" shape="9.60,95.20 90.40,95.20"/>
        <lane id="A1B1_2" index="2" speed="13.89" length="80.80" shape="9.60,98.40 90.40,98.40"/>
    </edge>
    <edge id="B0A0" from="B0" to="A0" priority="-1">
        <lane id="B0A0_0" index="0" speed="13.89" length="80.80" shape="90.40,8.00 9.60,8.00"/>
        <lane id="B0A0_1" index="1" speed="13.89" length="80.80" shape="90.40,4.80 9.60,4.80"/>
        <lane id="B0A0_2" index="2" speed="13.89" length="80.80" shape="90.40,1.60 9.60,1.60"/>
    </edge>
    <edge id="B0B1" from="B0" to="B1" priority="-1">
        <lane id="B0B1_0" index="0" speed="13.89" length="80.80" shape="108.00,9.60 108.00,90.40"/>
        <lane id="B0B1_1" index="1" speed="13.89" length="80.80" shape="104.80,9.60 104.80,90.40"/>
        <lane id="B0B1_2" index="2" speed="13.89" length="80.80" shape="101.60,9.60 101.60,90.40"/>
    </edge>
    <edge id="B1A1" from="B1" to="A1" priority="-1">
        <lane id="B1A1_0" index="0" speed="13.89" length="80.80" shape="90.40,108.00 9.60,108.00"/>
        <lane id="B1A1_1" index="1" speed="13.89" length="80.80" shape="90.40,104.80 9.60,104.80"/>
        <lane id="B1A1_2" index="2" speed="13.89" length="80.80" shape="90.40,101.60 9.60,101.60"/>
    </edge>
    <edge id="B1B0" from="B1" to="B0" priority="-1">
        <lane id="B1B0_0" index="0" speed="13.89" length="80.80" shape="92.00,90.40 92.00,9.60"/>
        <lane id="B1B0_1" index="1" speed="13.89" length="80.80" shape="95.20,90.40 95.20,9.60"/>
        <lane id="B1B0_2" index="2" speed="13.89" length="80.80" shape="98.40,90.40 98.40,9.60"/>
    </edge>

    <tlLogic id="A0" type="static" programID="0" offset="0">
        <phase duration="42" state="GGGGGG"/>
        <phase duration="3"  state="yyyyyy"/>
        <phase duration="42" state="GGGGGG"/>
        <phase duration="3"  state="yyyyyy"/>
    </tlLogic>
    <tlLogic id="A1" type="static" programID="0" offset="0">
        <phase duration="42" state="GGGGGG"/>
        <phase duration="3"  state="yyyyyy"/>
        <phase duration="42" state="GGGGGG"/>
        <phase duration="3"  state="yyyyyy"/>
    </tlLogic>
    <tlLogic id="B0" type="static" programID="0" offset="0">
        <phase duration="42" state="GGGGGG"/>
        <phase duration="3"  state="yyyyyy"/>
        <phase duration="42" state="GGGGGG"/>
        <phase duration="3"  state="yyyyyy"/>
    </tlLogic>
    <tlLogic id="B1" type="static" programID="0" offset="0">
        <phase duration="42" state="GGGGGG"/>
        <phase duration="3"  state="yyyyyy"/>
        <phase duration="42" state="GGGGGG"/>
        <phase duration="3"  state="yyyyyy"/>
    </tlLogic>

    <junction id="A0" type="traffic_light" x="0.00" y="0.00" incLanes="A1A0_0 A1A0_1 A1A0_2 B0A0_0 B0A0_1 B0A0_2" intLanes=":A0_0_0 :A0_1_0 :A0_2_0 :A0_3_0 :A0_4_0 :A0_5_0" shape="-9.60,9.60 9.60,9.60 9.60,-9.60 3.73,-9.07 -1.07,-7.47 -4.80,-4.80 -7.47,-1.07 -9.07,3.73">
        <request index="0" response="000000" foes="000000" cont="0"/>
        <request index="1" response="000000" foes="000000" cont="0"/>
        <request index="2" response="000000" foes="000000" cont="0"/>
        <request index="3" response="000000" foes="000000" cont="0"/>
        <request index="4" response="000000" foes="000000" cont="0"/>
        <request index="5" response="000000" foes="000000" cont="0"/>
    </junction>
    <junction id="A1" type="traffic_light" x="0.00" y="100.00" incLanes="B1A1_0 B1A1_1 B1A1_2 A0A1_0 A0A1_1 A0A1_2" intLanes=":A1_0_0 :A1_1_0 :A1_2_0 :A1_3_0 :A1_4_0 :A1_5_0" shape="9.60,109.60 9.60,90.40 -9.60,90.40 -9.07,96.27 -7.47,101.07 -4.80,104.80 -1.07,107.47 3.73,109.07">
        <request index="0" response="000000" foes="000000" cont="0"/>
        <request index="1" response="000000" foes="000000" cont="0"/>
        <request index="2" response="000000" foes="000000" cont="0"/>
        <request index="3" response="000000" foes="000000" cont="0"/>
        <request index="4" response="000000" foes="000000" cont="0"/>
        <request index="5" response="000000" foes="000000" cont="0"/>
    </junction>
    <junction id="B0" type="traffic_light" x="100.00" y="0.00" incLanes="B1B0_0 B1B0_1 B1B0_2 A0B0_0 A0B0_1 A0B0_2" intLanes=":B0_0_0 :B0_1_0 :B0_2_0 :B0_3_0 :B0_4_0 :B0_5_0" shape="90.40,9.60 109.60,9.60 109.07,3.73 107.47,-1.07 104.80,-4.80 101.07,-7.47 96.27,-9.07 90.40,-9.60">
        <request index="0" response="000000" foes="000000" cont="0"/>
        <request index="1" response="000000" foes="000000" cont="0"/>
        <request index="2" response="000000" foes="000000" cont="0"/>
        <request index="3" response="000000" foes="000000" cont="0"/>
        <request index="4" response="000000" foes="000000" cont="0"/>
        <request index="5" response="000000" foes="000000" cont="0"/>
    </junction>
    <junction id="B1" type="traffic_light" x="100.00" y="100.00" incLanes="B0B1_0 B0B1_1 B0B1_2 A1B1_0 A1B1_1 A1B1_2" intLanes=":B1_0_0 :B1_1_0 :B1_2_0 :B1_3_0 :B1_4_0 :B1_5_0" shape="109.60,90.40 90.40,90.40 90.40,109.60 96.27,109.07 101.07,107.47 104.80,104.80 107.47,101.07 109.07,96.27">
        <request index="0" response="000000" foes="000000" cont="0"/>
        <request index="1" response="000000" foes="000000" cont="0"/>
        <request index="2" response="000000" foes="000000" cont="0"/>
        <request index="3" response="000000" foes="000000" cont="0"/>
        <request index="4" response="000000" foes="000000" cont="0"/>
        <request index="5" response="000000" foes="000000" cont="0"/>
    </junction>

    <connection from="A0A1" to="A1B1" fromLane="0" toLane="0" via=":A1_3_0" tl="A1" linkIndex="3" dir="r" state="O"/>
    <connection from="A0A1" to="A1B1" fromLane="1" toLane="1" via=":A1_4_0" tl="A1" linkIndex="4" dir="r" state="O"/>
    <connection from="A0A1" to="A1B1" fromLane="2" toLane="2" via=":A1_5_0" tl="A1" linkIndex="5" dir="r" state="O"/>
    <connection from="A0B0" to="B0B1" fromLane="0" toLane="0" via=":B0_3_0" tl="B0" linkIndex="3" dir="l" state="O"/>
    <connection from="A0B0" to="B0B1" fromLane="1" toLane="1" via=":B0_4_0" tl="B0" linkIndex="4" dir="l" state="O"/>
    <connection from="A0B0" to="B0B1" fromLane="2" toLane="2" via=":B0_5_0" tl="B0" linkIndex="5" dir="l" state="O"/>
    <connection from="A1A0" to="A0B0" fromLane="0" toLane="0" via=":A0_0_0" tl="A0" linkIndex="0" dir="l" state="O"/>
    <connection from="A1A0" to="A0B0" fromLane="1" toLane="1" via=":A0_1_0" tl="A0" linkIndex="1" dir="l" state="O"/>
    <connection from="A1A0" to="A0B0" fromLane="2" toLane="2" via=":A0_2_0" tl="A0" linkIndex="2" dir="l" state="O"/>
    <connection from="A1B1" to="B1B0" fromLane="0" toLane="0" via=":B1_3_0" tl="B1" linkIndex="3" dir="r" state="O"/>
    <connection from="A1B1" to="B1B0" fromLane="1" toLane="1" via=":B1_4_0" tl="B1" linkIndex="4" dir="r" state="O"/>
    <connection from="A1B1" to="B1B0" fromLane="2" toLane="2" via=":B1_5_0" tl="B1" linkIndex="5" dir="r" state="O"/>
    <connection from="B0A0" to="A0A1" fromLane="0" toLane="0" via=":A0_3_0" tl="A0" linkIndex="3" dir="r" state="O"/>
    <connection from="B0A0" to="A0A1" fromLane="1" toLane="1" via=":A0_4_0" tl="A0" linkIndex="4" dir="r" state="O"/>
    <connection from="B0A0" to="A0A1" fromLane="2" toLane="2" via=":A0_5_0" tl="A0" linkIndex="5" dir="r" state="O"/>
    <connection from="B0B1" to="B1A1" fromLane="0" toLane="0" via=":B1_0_0" tl="B1" linkIndex="0" dir="l" state="O"/>
    <connection from="B0B1" to="B1A1" fromLane="1" toLane="1" via=":B1_1_0" tl="B1" linkIndex="1" dir="l" state="O"/>
    <connection from="B0B1" to="B1A1" fromLane="2" toLane="2" via=":B1_2_0" tl="B1" linkIndex="2" dir="l" state="O"/>
    <connection from="B1A1" to="A1A0" fromLane="0" toLane="0" via=":A1_0_0" tl="A1" linkIndex="0" dir="l" state="O"/>
    <connection from="B1A1" to="A1A0" fromLane="1" toLane="1" via=":A1_1_0" tl="A1" linkIndex="1" dir="l" state="O"/>
    <connection from="B1A1" to="A1A0" fromLane="2" toLane="2" via=":A1_2_0" tl="A1" linkIndex="2" dir="l" state="O"/>
    <connection from="B1B0" to="B0A0" fromLane="0" toLane="0" via=":B0_0_0" tl="B0" linkIndex="0" dir="r" state="O"/>
    <connection from="B1B0" to="B0A0" fromLane="1" toLane="1" via=":B0_1_0" tl="B0" linkIndex="1" dir="r" state="O"/>
    <connection from="B1B0" to="B0A0" fromLane="2" toLane="2" via=":B0_2_0" tl="B0" linkIndex="2" dir="r" state="O"/>

    <connection from=":A0_0" to="A0B0" fromLane="0" toLane="0" dir="l" state="M"/>
    <connection from=":A0_1" to="A0B0" fromLane="0" toLane="1" dir="l" state="M"/>
    <connection from=":A0_2" to="A0B0" fromLane="0" toLane="2" dir="l" state="M"/>
    <connection from=":A0_3" to="A0A1" fromLane="0" toLane="0" dir="r" state="M"/>
    <connection from=":A0_4" to="A0A1" fromLane="0" toLane="1" dir="r" state="M"/>
    <connection from=":A0_5" to="A0A1" fromLane="0" toLane="2" dir="r" state="M"/>
    <connection from=":A1_0" to="A1A0" fromLane="0" toLane="0" dir="l" state="M"/>
    <connection from=":A1_1" to="A1A0" fromLane="0" toLane="1" dir="l" state="M"/>
    <connection from=":A1_2" to="A1A0" fromLane="0" toLane="2" dir="l" state="M"/>
    <connection from=":A1_3" to="A1B1" fromLane="0" toLane="0" dir="r" state="M"/>
    <connection from=":A1_4" to="A1B1" fromLane="0" toLane="1" dir="r" state="M"/>
    <connection from=":A1_5" to="A1B1" fromLane="0" toLane="2" dir="r" state="M"/>
    <connection from=":B0_0" to="B0A0" fromLane="0" toLane="0" dir="r" state="M"/>
    <connection from=":B0_1" to="B0A0" fromLane="0" toLane="1" dir="r" state="M"/>
    <connection from=":B0_2" to="B0A0" fromLane="0" toLane="2" dir="r" state="M"/>
    <connection from=":B0_3" to="B0B1" fromLane="0" toLane="0" dir="l" state="M"/>
    <connection from=":B0_4" to="B0B1" fromLane="0" toLane="1" dir="l" state="M"/>
    <connection from=":B0_5" to="B0B1" fromLane="0" toLane="2" dir="l" state="M"/>
    <connection from=":B1_0" to="B1A1" fromLane="0" toLane="0" dir="l" state="M"/>
    <connection from=":B1_1" to="B1A1" fromLane="0" toLane="1" dir="l" state="M"/>
    <connection from=":B1_2" to="B1A1" fromLane="0" toLane="2" dir="l" state="M"/>
    <connection from=":B1_3" to="B1B0" fromLane="0" toLane="0" dir="r" state="M"/>
    <connection from=":B1_4" to="B1B0" fromLane="0" toLane="1" dir="r" state="M"/>
    <connection from=":B1_5" to="B1B0" fromLane="0" toLane="2" dir="r" state="M"/>

</net>
