<?xml version="1.0" encoding="UTF-8"?>

<!-- generated on 08/11/21 11:37:21 by Eclipse SUMO netedit Version 1.8.0
<configuration xmlns:xsi="http://www.w3.org/2001/XMLSchema-instance" xsi:noNamespaceSchemaLocation="http://sumo.dlr.de/xsd/netconvertConfiguration.xsd">

    <input>
        <osm-files value="C:\Users\Nathaniel\Downloads\boston-v4.osm"/>
    </input>

    <output>
        <output-file value="C:\Users\Nathaniel\GitHub\SUMO-FedRL\configs\boston_inter\boston.net.xml"/>
    </output>

    <projection>
        <proj.utm value="true"/>
    </projection>

    <processing>
        <geometry.remove value="true"/>
    </processing>

    <tls_building>
        <tls.discard-simple value="true"/>
        <tls.guess-signals value="true"/>
    </tls_building>

    <ramp_guessing>
        <ramps.guess value="true"/>
    </ramp_guessing>

    <junctions>
        <junctions.join value="true"/>
    </junctions>

    <report>
        <aggregate-warnings value="5"/>
    </report>

</configuration>
-->

<net version="1.6" junctionCornerDetail="5" limitTurnSpeed="5.50" xmlns:xsi="http://www.w3.org/2001/XMLSchema-instance" xsi:noNamespaceSchemaLocation="http://sumo.dlr.de/xsd/net_file.xsd">

    <location netOffset="-329477.98,-4690906.35" convBoundary="0.00,0.00,1245.70,1361.18" origBoundary="-71.070735,42.351948,-71.055565,42.364213" projParameter="+proj=utm +zone=19 +ellps=WGS84 +datum=WGS84 +units=m +no_defs"/>

    <type id="highway.bridleway" priority="1" numLanes="1" speed="2.78" allow="pedestrian" oneway="1" width="2.00"/>
    <type id="highway.bus_guideway" priority="1" numLanes="1" speed="27.78" allow="bus" oneway="1"/>
    <type id="highway.cycleway" priority="1" numLanes="1" speed="8.33" allow="bicycle" oneway="1" width="1.00"/>
    <type id="highway.footway" priority="1" numLanes="1" speed="2.78" allow="pedestrian" oneway="1" width="2.00"/>
    <type id="highway.ford" priority="1" numLanes="1" speed="2.78" allow="army" oneway="1"/>
    <type id="highway.living_street" priority="2" numLanes="1" speed="2.78" disallow="tram rail_urban rail rail_electric rail_fast ship" oneway="1"/>
    <type id="highway.motorway" priority="14" numLanes="2" speed="39.44" allow="private emergency authority army vip passenger hov taxi bus coach delivery truck trailer motorcycle evehicle custom1 custom2" oneway="1"/>
    <type id="highway.motorway_link" priority="9" numLanes="1" speed="22.22" allow="private emergency authority army vip passenger hov taxi bus coach delivery truck trailer motorcycle evehicle custom1 custom2" oneway="1"/>
    <type id="highway.path" priority="1" numLanes="1" speed="2.78" allow="pedestrian bicycle" oneway="1" width="2.00"/>
    <type id="highway.pedestrian" priority="1" numLanes="1" speed="2.78" allow="pedestrian" oneway="1" width="2.00"/>
    <type id="highway.primary" priority="12" numLanes="2" speed="27.78" disallow="tram rail_urban rail rail_electric rail_fast ship" oneway="1"/>
    <type id="highway.primary_link" priority="7" numLanes="1" speed="22.22" disallow="tram rail_urban rail rail_electric rail_fast ship" oneway="1"/>
    <type id="highway.raceway" priority="15" numLanes="2" speed="83.33" allow="vip" oneway="1"/>
    <type id="highway.residential" priority="3" numLanes="1" speed="13.89" disallow="tram rail_urban rail rail_electric rail_fast ship" oneway="1"/>
    <type id="highway.secondary" priority="11" numLanes="1" speed="27.78" disallow="tram rail_urban rail rail_electric rail_fast ship" oneway="1"/>
    <type id="highway.secondary_link" priority="6" numLanes="1" speed="22.22" disallow="tram rail_urban rail rail_electric rail_fast ship" oneway="1"/>
    <type id="highway.service" priority="1" numLanes="1" speed="5.56" allow="pedestrian delivery bicycle" oneway="1"/>
    <type id="highway.stairs" priority="1" numLanes="1" speed="1.39" allow="pedestrian" oneway="1" width="2.00"/>
    <type id="highway.step" priority="1" numLanes="1" speed="1.39" allow="pedestrian" oneway="1" width="2.00"/>
    <type id="highway.steps" priority="1" numLanes="1" speed="1.39" allow="pedestrian" oneway="1" width="2.00"/>
    <type id="highway.tertiary" priority="10" numLanes="1" speed="22.22" disallow="tram rail_urban rail rail_electric rail_fast ship" oneway="1"/>
    <type id="highway.tertiary_link" priority="5" numLanes="1" speed="22.22" disallow="tram rail_urban rail rail_electric rail_fast ship" oneway="1"/>
    <type id="highway.track" priority="1" numLanes="1" speed="5.56" allow="pedestrian motorcycle moped bicycle" oneway="1"/>
    <type id="highway.trunk" priority="13" numLanes="2" speed="27.78" disallow="pedestrian bicycle tram rail_urban rail rail_electric rail_fast ship" oneway="1"/>
    <type id="highway.trunk_link" priority="8" numLanes="1" speed="22.22" disallow="pedestrian bicycle tram rail_urban rail rail_electric rail_fast ship" oneway="1"/>
    <type id="highway.unclassified" priority="4" numLanes="1" speed="13.89" disallow="tram rail_urban rail rail_electric rail_fast ship" oneway="1"/>
    <type id="highway.unsurfaced" priority="1" numLanes="1" speed="8.33" disallow="tram rail_urban rail rail_electric rail_fast ship" oneway="1"/>
    <type id="railway.highspeed" priority="21" numLanes="1" speed="69.44" allow="rail_fast" oneway="1"/>
    <type id="railway.light_rail" priority="19" numLanes="1" speed="27.78" allow="rail_urban" oneway="1"/>
    <type id="railway.preserved" priority="16" numLanes="1" speed="27.78" allow="rail" oneway="1"/>
    <type id="railway.rail" priority="20" numLanes="1" speed="44.44" allow="rail" oneway="1"/>
    <type id="railway.subway" priority="18" numLanes="1" speed="27.78" allow="rail_urban" oneway="1"/>
    <type id="railway.tram" priority="17" numLanes="1" speed="13.89" allow="tram" oneway="1"/>

    <edge id=":1047228030_0" function="internal">
        <lane id=":1047228030_0_0" index="0" disallow="tram rail_urban rail rail_electric rail_fast ship" speed="3.65" length="4.67" shape="892.49,1228.83 893.38,1229.97 893.50,1230.86 892.87,1231.49 891.48,1231.87"/>
    </edge>
    <edge id=":1132394679_0" function="internal">
        <lane id=":1132394679_0_0" index="0" allow="pedestrian delivery bicycle" speed="3.65" length="4.67" shape="424.57,151.94 424.16,153.32 423.52,153.94 422.64,153.80 421.52,152.89"/>
    </edge>
    <edge id=":1132394776_0" function="internal">
        <lane id=":1132394776_0_0" index="0" disallow="tram rail_urban rail rail_electric rail_fast ship" speed="11.12" length="8.73" shape="95.18,474.13 93.77,476.43 92.55,477.90 90.98,478.93 88.49,479.95"/>
        <lane id=":1132394776_0_1" index="1" disallow="tram rail_urban rail rail_electric rail_fast ship" speed="10.58" length="8.73" shape="92.72,472.00 91.44,474.08 90.33,475.39 88.89,476.31 86.65,477.21"/>
    </edge>
    <edge id=":1132394802_0" function="internal">
        <lane id=":1132394802_0_0" index="0" allow="pedestrian delivery bicycle" speed="3.65" length="4.67" shape="404.61,71.16 405.23,69.86 405.97,69.35 406.82,69.64 407.78,70.72"/>
    </edge>
    <edge id=":1132394894_0" function="internal">
        <lane id=":1132394894_0_0" index="0" disallow="tram rail_urban rail rail_electric rail_fast ship" speed="11.18" length="8.24" shape="107.13,476.94 106.71,479.23 106.83,480.83 107.26,482.45 107.80,484.77"/>
        <lane id=":1132394894_0_1" index="1" disallow="tram rail_urban rail rail_electric rail_fast ship" speed="11.18" length="8.24" shape="103.80,477.04 103.38,479.46 103.55,481.17 104.05,482.88 104.65,485.34"/>
    </edge>
    <edge id=":1153869611_0" function="internal">
        <lane id=":1153869611_0_0" index="0" allow="pedestrian delivery bicycle" speed="6.78" length="6.05" shape="877.66,1081.40 878.80,1081.82 880.13,1081.84 881.66,1081.43 883.39,1080.61"/>
    </edge>
    <edge id=":1153869611_1" function="internal">
        <lane id=":1153869611_1_0" index="0" disallow="tram rail_urban rail rail_electric rail_fast ship" speed="11.18" length="6.62" shape="877.66,1081.40 883.30,1084.89"/>
        <lane id=":1153869611_1_1" index="1" disallow="tram rail_urban rail rail_electric rail_fast ship" speed="11.18" length="6.62" shape="875.99,1084.13 881.60,1087.61"/>
    </edge>
    <edge id=":1153869616_0" function="internal">
        <lane id=":1153869616_0_0" index="0" allow="pedestrian delivery bicycle" speed="7.06" length="6.23" shape="938.21,1114.71 938.33,1116.71 938.71,1118.32 939.35,1119.53 940.24,1120.36"/>
    </edge>
    <edge id=":1153869616_1" function="internal">
        <lane id=":1153869616_1_0" index="0" disallow="tram rail_urban rail rail_electric rail_fast ship" speed="11.18" length="6.77" shape="934.49,1116.78 940.24,1120.36"/>
        <lane id=":1153869616_1_1" index="1" disallow="tram rail_urban rail rail_electric rail_fast ship" speed="11.18" length="6.77" shape="932.80,1119.49 938.55,1123.08"/>
    </edge>
    <edge id=":1153871303_0" function="internal">
        <lane id=":1153871303_0_0" index="0" disallow="tram rail_urban rail rail_electric rail_fast ship" speed="11.18" length="3.54" shape="1125.54,880.89 1124.91,884.36"/>
        <lane id=":1153871303_0_1" index="1" disallow="tram rail_urban rail rail_electric rail_fast ship" speed="11.18" length="3.54" shape="1122.39,880.31 1121.76,883.79"/>
        <lane id=":1153871303_0_2" index="2" disallow="tram rail_urban rail rail_electric rail_fast ship" speed="11.18" length="3.54" shape="1119.25,879.73 1118.61,883.22"/>
    </edge>
    <edge id=":1153871305_0" function="internal">
        <lane id=":1153871305_0_0" index="0" disallow="tram rail_urban rail rail_electric rail_fast ship" speed="11.18" length="5.07" shape="1106.14,881.04 1107.05,876.01"/>
        <lane id=":1153871305_0_1" index="1" disallow="tram rail_urban rail rail_electric rail_fast ship" speed="11.18" length="5.07" shape="1109.30,881.58 1110.19,876.60"/>
        <lane id=":1153871305_0_2" index="2" disallow="tram rail_urban rail rail_electric rail_fast ship" speed="11.18" length="5.07" shape="1112.45,882.13 1113.34,877.19"/>
    </edge>
    <edge id=":1196424587_0" function="internal">
        <lane id=":1196424587_0_0" index="0" allow="pedestrian delivery bicycle" speed="11.18" length="6.18" shape="1136.55,1078.02 1135.69,1071.89"/>
    </edge>
    <edge id=":1196424587_1" function="internal">
        <lane id=":1196424587_1_0" index="0" allow="pedestrian delivery bicycle" speed="3.65" length="4.67" shape="1136.55,1078.02 1137.18,1076.72 1137.92,1076.22 1138.77,1076.51 1139.72,1077.60"/>
    </edge>
    <edge id=":1196424587_2" function="internal">
        <lane id=":1196424587_2_0" index="0" allow="pedestrian delivery bicycle" speed="11.18" length="6.28" shape="1138.85,1071.38 1139.72,1077.60"/>
    </edge>
    <edge id=":1196424587_3" function="internal">
        <lane id=":1196424587_3_0" index="0" allow="pedestrian delivery bicycle" speed="3.65" length="4.67" shape="1138.85,1071.38 1138.25,1072.69 1137.53,1073.22 1136.67,1072.95 1135.69,1071.89"/>
    </edge>
    <edge id=":1196976901_0" function="internal">
        <lane id=":1196976901_0_0" index="0" disallow="tram rail_urban rail rail_electric rail_fast ship" speed="11.18" length="7.76" shape="878.67,161.36 876.52,162.18 875.06,162.79 873.69,163.58 871.81,164.89"/>
    </edge>
    <edge id=":1196976901_1" function="internal">
        <lane id=":1196976901_1_0" index="0" disallow="tram rail_urban rail rail_electric rail_fast ship" speed="11.18" length="6.62" shape="869.92,162.31 871.20,160.77 871.50,159.23 871.81,157.70 873.12,156.20"/>
        <lane id=":1196976901_1_1" index="1" disallow="tram rail_urban rail rail_electric rail_fast ship" speed="11.18" length="6.62" shape="869.92,162.31 874.96,158.81"/>
    </edge>
    <edge id=":1202432360_0" function="internal">
        <lane id=":1202432360_0_0" index="0" disallow="tram rail_urban rail rail_electric rail_fast ship" speed="11.18" length="7.56" shape="1167.53,272.31 1166.71,279.82"/>
        <lane id=":1202432360_0_1" index="1" disallow="tram rail_urban rail rail_electric rail_fast ship" speed="11.18" length="7.56" shape="1164.35,271.96 1163.53,279.47"/>
    </edge>
    <edge id=":1202432360_2" function="internal">
        <lane id=":1202432360_2_0" index="0" allow="pedestrian delivery bicycle" speed="6.22" length="7.84" shape="1164.35,271.96 1163.85,274.66 1163.05,276.56 1161.93,277.66 1160.49,277.97"/>
    </edge>
    <edge id=":1202432360_3" function="internal">
        <lane id=":1202432360_3_0" index="0" allow="pedestrian delivery bicycle" speed="5.46" length="6.30" shape="1160.68,274.77 1162.11,275.14 1163.06,276.04 1163.53,277.49 1163.53,279.47"/>
    </edge>
    <edge id=":1202432360_4" function="internal">
        <lane id=":1202432360_4_0" index="0" allow="pedestrian delivery bicycle" speed="3.65" length="4.67" shape="1160.68,274.77 1161.83,275.64 1162.18,276.46 1161.74,277.24 1160.49,277.97"/>
    </edge>
    <edge id=":1202432362_0" function="internal">
        <lane id=":1202432362_0_0" index="0" allow="pedestrian delivery bicycle" speed="4.65" length="3.90" shape="1166.69,280.02 1166.84,280.56 1167.43,281.02 1168.45,281.42 1169.91,281.74"/>
    </edge>
    <edge id=":1202432362_1" function="internal">
        <lane id=":1202432362_1_0" index="0" allow="pedestrian delivery bicycle" speed="5.64" length="6.23" shape="1166.69,280.02 1166.68,281.95 1167.12,283.41 1168.02,284.39 1169.37,284.90"/>
    </edge>
    <edge id=":1202432362_2" function="internal">
        <lane id=":1202432362_2_0" index="0" disallow="tram rail_urban rail rail_electric rail_fast ship" speed="11.18" length="7.56" shape="1166.69,280.02 1165.86,287.54"/>
        <lane id=":1202432362_2_1" index="1" disallow="tram rail_urban rail rail_electric rail_fast ship" speed="11.18" length="7.56" shape="1163.51,279.67 1162.68,287.19"/>
    </edge>
    <edge id=":1325838536_0" function="internal">
        <lane id=":1325838536_0_0" index="0" disallow="tram rail_urban rail rail_electric rail_fast ship" speed="11.18" length="5.80" shape="619.39,653.51 624.50,656.19"/>
        <lane id=":1325838536_0_1" index="1" disallow="tram rail_urban rail rail_electric rail_fast ship" speed="11.18" length="5.80" shape="617.88,656.32 623.04,659.03"/>
    </edge>
    <edge id=":1411414543_0" function="internal">
        <lane id=":1411414543_0_0" index="0" disallow="tram rail_urban rail rail_electric rail_fast ship" speed="11.18" length="6.72" shape="1069.15,1050.48 1071.60,1044.33"/>
        <lane id=":1411414543_0_1" index="1" disallow="tram rail_urban rail rail_electric rail_fast ship" speed="11.18" length="6.72" shape="1072.10,1051.71 1074.59,1045.47"/>
        <lane id=":1411414543_0_2" index="2" disallow="tram rail_urban rail rail_electric rail_fast ship" speed="11.18" length="6.72" shape="1075.05,1052.95 1077.58,1046.61"/>
    </edge>
    <edge id=":1411414581_0" function="internal">
        <lane id=":1411414581_0_0" index="0" allow="pedestrian delivery bicycle" speed="5.56" length="7.06" shape="884.83,1079.80 891.00,1076.36"/>
    </edge>
    <edge id=":1411414619_0" function="internal">
        <lane id=":1411414619_0_0" index="0" disallow="tram rail_urban rail rail_electric rail_fast ship" speed="11.18" length="5.09" shape="1087.59,1052.34 1085.75,1057.14"/>
        <lane id=":1411414619_0_1" index="1" disallow="tram rail_urban rail rail_electric rail_fast ship" speed="11.18" length="5.09" shape="1084.58,1051.24 1082.78,1055.95"/>
    </edge>
    <edge id=":1411414710_0" function="internal">
        <lane id=":1411414710_0_0" index="0" disallow="tram rail_urban rail rail_electric rail_fast ship" speed="11.18" length="3.89" shape="1121.14,905.01 1120.43,908.89"/>
        <lane id=":1411414710_0_1" index="1" disallow="tram rail_urban rail rail_electric rail_fast ship" speed="11.18" length="3.89" shape="1117.99,904.45 1117.29,908.27"/>
        <lane id=":1411414710_0_2" index="2" disallow="tram rail_urban rail rail_electric rail_fast ship" speed="11.18" length="3.89" shape="1114.84,903.88 1114.15,907.66"/>
    </edge>
    <edge id=":1522224052_0" function="internal">
        <lane id=":1522224052_0_0" index="0" disallow="tram rail_urban rail rail_electric rail_fast ship" speed="5.91" length="7.60" shape="541.52,1026.73 541.76,1028.39 542.75,1029.58 544.49,1030.30 546.97,1030.55"/>
    </edge>
    <edge id=":1522224052_1" function="internal">
        <lane id=":1522224052_1_0" index="0" disallow="tram rail_urban rail rail_electric rail_fast ship" speed="11.18" length="11.21" shape="535.76,1030.49 546.97,1030.55"/>
        <lane id=":1522224052_1_1" index="1" disallow="tram rail_urban rail rail_electric rail_fast ship" speed="11.18" length="11.21" shape="535.74,1033.69 546.96,1033.75"/>
        <lane id=":1522224052_1_2" index="2" disallow="tram rail_urban rail rail_electric rail_fast ship" speed="11.18" length="11.21" shape="535.72,1036.89 546.94,1036.95"/>
    </edge>
    <edge id=":1522224084_0" function="internal">
        <lane id=":1522224084_0_0" index="0" disallow="tram rail_urban rail rail_electric rail_fast ship" speed="11.18" length="3.51" shape="641.86,835.05 642.46,838.50"/>
    </edge>
    <edge id=":1522224095_0" function="internal">
        <lane id=":1522224095_0_0" index="0" allow="pedestrian delivery bicycle" speed="5.07" length="5.05" shape="604.38,1030.24 604.58,1031.63 605.17,1032.61 606.14,1033.20 607.50,1033.40"/>
    </edge>
    <edge id=":1522224095_1" function="internal">
        <lane id=":1522224095_1_0" index="0" allow="pedestrian delivery bicycle" speed="3.65" length="4.67" shape="604.38,1030.24 603.59,1031.45 602.79,1031.85 601.99,1031.45 601.18,1030.26"/>
    </edge>
    <edge id=":1522224095_2" function="internal">
        <lane id=":1522224095_2_0" index="0" allow="pedestrian delivery bicycle" speed="5.02" length="5.02" shape="598.07,1033.35 599.44,1033.17 600.41,1032.60 600.99,1031.63 601.18,1030.26"/>
    </edge>
    <edge id=":1522224095_3" function="internal">
        <lane id=":1522224095_3_0" index="0" disallow="tram rail_urban rail rail_electric rail_fast ship" speed="11.18" length="9.46" shape="598.07,1033.35 607.50,1033.40"/>
        <lane id=":1522224095_3_1" index="1" disallow="tram rail_urban rail rail_electric rail_fast ship" speed="11.18" length="9.46" shape="598.02,1036.55 607.51,1036.60"/>
    </edge>
    <edge id=":1522224143_0" function="internal">
        <lane id=":1522224143_0_0" index="0" disallow="tram rail_urban rail rail_electric rail_fast ship" speed="11.18" length="8.18" shape="828.58,975.06 826.87,976.78 825.96,978.22 825.05,979.65 823.31,981.33"/>
        <lane id=":1522224143_0_1" index="1" disallow="tram rail_urban rail rail_electric rail_fast ship" speed="11.18" length="8.18" shape="826.55,972.59 824.86,974.29 823.97,975.72 823.06,977.14 821.34,978.80"/>
        <lane id=":1522224143_0_2" index="2" disallow="tram rail_urban rail rail_electric rail_fast ship" speed="11.18" length="8.18" shape="826.55,972.59 824.56,973.89 822.98,974.46 821.39,975.02 819.37,976.28"/>
    </edge>
    <edge id=":1522224270_0" function="internal">
        <lane id=":1522224270_0_0" index="0" disallow="tram rail_urban rail rail_electric rail_fast ship" speed="11.18" length="5.37" shape="665.96,1048.23 660.55,1048.61"/>
        <lane id=":1522224270_0_1" index="1" disallow="tram rail_urban rail rail_electric rail_fast ship" speed="11.18" length="5.37" shape="665.72,1045.04 660.42,1045.42"/>
    </edge>
    <edge id=":1522224402_0" function="internal">
        <lane id=":1522224402_0_0" index="0" disallow="tram rail_urban rail rail_electric rail_fast ship" speed="6.37" length="8.11" shape="580.79,1050.54 578.73,1050.86 577.21,1051.83 576.21,1053.45 575.74,1055.72"/>
    </edge>
    <edge id=":1522224402_1" function="internal">
        <lane id=":1522224402_1_0" index="0" disallow="tram rail_urban rail rail_electric rail_fast ship" speed="11.18" length="19.68" shape="580.79,1050.54 561.18,1048.88"/>
        <lane id=":1522224402_1_1" index="1" disallow="tram rail_urban rail rail_electric rail_fast ship" speed="11.18" length="19.68" shape="580.80,1047.34 561.19,1045.68"/>
    </edge>
    <edge id=":1522224402_3" function="internal">
        <lane id=":1522224402_3_0" index="0" disallow="tram rail_urban rail rail_electric rail_fast ship" speed="6.38" length="10.38" shape="580.81,1044.14 576.78,1043.90 574.04,1043.18 572.60,1042.00 572.46,1040.36"/>
    </edge>
    <edge id=":1522224402_4" function="internal">
        <lane id=":1522224402_4_0" index="0" disallow="tram rail_urban rail rail_electric rail_fast ship" speed="11.18" length="14.24" shape="578.64,1042.04 577.49,1046.04 576.71,1048.79 576.17,1051.59 575.74,1055.72"/>
        <lane id=":1522224402_4_1" index="1" disallow="tram rail_urban rail rail_electric rail_fast ship" speed="11.18" length="14.24" shape="575.55,1041.20 574.37,1045.33 573.56,1048.17 573.00,1051.05 572.56,1055.31"/>
    </edge>
    <edge id=":1522224402_6" function="internal">
        <lane id=":1522224402_6_0" index="0" disallow="tram rail_urban rail rail_electric rail_fast ship" speed="9.35" length="3.49" shape="575.55,1041.20 574.19,1043.17 573.21,1043.66"/>
    </edge>
    <edge id=":1522224402_7" function="internal">
        <lane id=":1522224402_7_0" index="0" disallow="tram rail_urban rail rail_electric rail_fast ship" speed="3.65" length="2.34" shape="575.55,1041.20 574.46,1042.15 573.59,1042.32"/>
    </edge>
    <edge id=":1522224402_12" function="internal">
        <lane id=":1522224402_12_0" index="0" disallow="tram rail_urban rail rail_electric rail_fast ship" speed="9.35" length="12.32" shape="573.21,1043.66 571.35,1044.58 567.01,1045.41 561.19,1045.68"/>
    </edge>
    <edge id=":1522224402_13" function="internal">
        <lane id=":1522224402_13_0" index="0" disallow="tram rail_urban rail rail_electric rail_fast ship" speed="3.65" length="2.34" shape="573.59,1042.32 572.92,1041.73 572.46,1040.36"/>
    </edge>
    <edge id=":1522224402_8" function="internal">
        <lane id=":1522224402_8_0" index="0" disallow="tram rail_urban rail rail_electric rail_fast ship" speed="6.20" length="8.84" shape="566.23,1054.47 566.17,1052.03 565.31,1050.28 563.65,1049.24 561.18,1048.88"/>
    </edge>
    <edge id=":1522224402_9" function="internal">
        <lane id=":1522224402_9_0" index="0" disallow="tram rail_urban rail rail_electric rail_fast ship" speed="11.18" length="15.09" shape="566.23,1054.47 566.83,1049.97 567.40,1046.92 568.17,1043.90 569.37,1039.52"/>
        <lane id=":1522224402_9_1" index="1" disallow="tram rail_urban rail rail_electric rail_fast ship" speed="11.18" length="15.09" shape="569.40,1054.90 569.99,1050.53 570.54,1047.56 571.29,1044.62 572.46,1040.36"/>
    </edge>
    <edge id=":1522224402_11" function="internal">
        <lane id=":1522224402_11_0" index="0" disallow="tram rail_urban rail rail_electric rail_fast ship" speed="3.67" length="2.33" shape="569.40,1054.90 570.34,1053.82 571.18,1053.52"/>
    </edge>
    <edge id=":1522224402_14" function="internal">
        <lane id=":1522224402_14_0" index="0" disallow="tram rail_urban rail rail_electric rail_fast ship" speed="3.67" length="2.33" shape="571.18,1053.52 571.92,1054.02 572.56,1055.31"/>
    </edge>
    <edge id=":1522224472_0" function="internal">
        <lane id=":1522224472_0_0" index="0" disallow="tram rail_urban rail rail_electric rail_fast ship" speed="11.18" length="6.95" shape="640.62,828.02 640.81,830.07 641.04,831.46 641.36,832.84 641.81,834.85"/>
    </edge>
    <edge id=":1522224472_1" function="internal">
        <lane id=":1522224472_1_0" index="0" disallow="tram rail_urban rail rail_electric rail_fast ship" speed="11.18" length="8.65" shape="640.62,828.02 640.70,830.55 640.43,832.30 639.66,833.93 638.28,836.07"/>
    </edge>
    <edge id=":1545071815_0" function="internal">
        <lane id=":1545071815_0_0" index="0" disallow="tram rail_urban rail rail_electric rail_fast ship" speed="27.78" length="6.67" shape="1109.88,147.44 1103.38,149.40"/>
        <lane id=":1545071815_0_1" index="1" disallow="tram rail_urban rail rail_electric rail_fast ship" speed="27.78" length="6.67" shape="1108.86,144.41 1102.57,146.31"/>
    </edge>
    <edge id=":1545071815_2" function="internal">
        <lane id=":1545071815_2_0" index="0" disallow="tram rail_urban rail rail_electric rail_fast ship" speed="3.65" length="2.34" shape="1108.86,144.41 1107.47,144.03 1106.83,143.40"/>
    </edge>
    <edge id=":1545071815_6" function="internal">
        <lane id=":1545071815_6_0" index="0" disallow="tram rail_urban rail rail_electric rail_fast ship" speed="3.65" length="2.34" shape="1106.83,143.40 1106.96,142.52 1107.84,141.38"/>
    </edge>
    <edge id=":1545071815_3" function="internal">
        <lane id=":1545071815_3_0" index="0" disallow="tram rail_urban rail rail_electric rail_fast ship" speed="27.78" length="6.25" shape="1100.94,140.12 1106.82,138.34"/>
        <lane id=":1545071815_3_1" index="1" disallow="tram rail_urban rail rail_electric rail_fast ship" speed="27.78" length="6.25" shape="1101.76,143.21 1107.84,141.38"/>
    </edge>
    <edge id=":1545071815_5" function="internal">
        <lane id=":1545071815_5_0" index="0" disallow="tram rail_urban rail rail_electric rail_fast ship" speed="3.65" length="2.34" shape="1101.76,143.21 1103.12,143.68 1103.71,144.35"/>
    </edge>
    <edge id=":1545071815_7" function="internal">
        <lane id=":1545071815_7_0" index="0" disallow="tram rail_urban rail rail_electric rail_fast ship" speed="3.65" length="2.34" shape="1103.71,144.35 1103.53,145.23 1102.57,146.31"/>
    </edge>
    <edge id=":1621057820_0" function="internal">
        <lane id=":1621057820_0_0" index="0" allow="pedestrian delivery bicycle" speed="6.08" length="7.79" shape="425.59,1037.85 425.97,1036.47 427.15,1035.48 429.11,1034.88 431.87,1034.67"/>
    </edge>
    <edge id=":1621057820_1" function="internal">
        <lane id=":1621057820_1_0" index="0" allow="pedestrian delivery bicycle" speed="3.65" length="4.67" shape="425.59,1037.85 426.38,1036.64 427.18,1036.23 427.98,1036.63 428.79,1037.82"/>
    </edge>
    <edge id=":1621057820_2" function="internal">
        <lane id=":1621057820_2_0" index="0" disallow="tram rail_urban rail rail_electric rail_fast ship" speed="11.18" length="9.45" shape="422.37,1031.60 431.85,1031.47"/>
        <lane id=":1621057820_2_1" index="1" disallow="tram rail_urban rail rail_electric rail_fast ship" speed="11.18" length="9.45" shape="422.44,1034.80 431.87,1034.67"/>
    </edge>
    <edge id=":1621057820_4" function="internal">
        <lane id=":1621057820_4_0" index="0" allow="pedestrian delivery bicycle" speed="6.07" length="7.79" shape="422.44,1034.80 425.21,1034.93 427.19,1035.48 428.39,1036.44 428.79,1037.82"/>
    </edge>
    <edge id=":1735974643_0" function="internal">
        <lane id=":1735974643_0_0" index="0" disallow="tram rail_urban rail rail_electric rail_fast ship" speed="11.18" length="5.00" shape="237.18,967.17 237.04,972.16"/>
    </edge>
    <edge id=":1830597776_0" function="internal">
        <lane id=":1830597776_0_0" index="0" disallow="tram rail_urban rail rail_electric rail_fast ship" speed="11.18" length="5.40" shape="524.89,169.12 519.66,170.48"/>
    </edge>
    <edge id=":1830597776_1" function="internal">
        <lane id=":1830597776_1_0" index="0" disallow="tram rail_urban rail rail_electric rail_fast ship" speed="3.65" length="2.34" shape="524.89,169.12 523.52,168.65 522.93,167.98"/>
    </edge>
    <edge id=":1830597776_4" function="internal">
        <lane id=":1830597776_4_0" index="0" disallow="tram rail_urban rail rail_electric rail_fast ship" speed="3.65" length="2.34" shape="522.93,167.98 523.11,167.11 524.06,166.02"/>
    </edge>
    <edge id=":1830597776_2" function="internal">
        <lane id=":1830597776_2_0" index="0" disallow="tram rail_urban rail rail_electric rail_fast ship" speed="11.18" length="5.37" shape="518.87,167.38 524.06,166.02"/>
    </edge>
    <edge id=":1830597776_3" function="internal">
        <lane id=":1830597776_3_0" index="0" disallow="tram rail_urban rail rail_electric rail_fast ship" speed="3.65" length="2.34" shape="518.87,167.38 520.23,167.86 520.81,168.54"/>
    </edge>
    <edge id=":1830597776_5" function="internal">
        <lane id=":1830597776_5_0" index="0" disallow="tram rail_urban rail rail_electric rail_fast ship" speed="3.65" length="2.34" shape="520.81,168.54 520.63,169.41 519.66,170.48"/>
    </edge>
    <edge id=":1830597849_0" function="internal">
        <lane id=":1830597849_0_0" index="0" disallow="tram rail_urban rail rail_electric rail_fast ship" speed="11.18" length="5.18" shape="701.44,522.65 698.31,526.78"/>
    </edge>
    <edge id=":1830597849_1" function="internal">
        <lane id=":1830597849_1_0" index="0" disallow="tram rail_urban rail rail_electric rail_fast ship" speed="3.65" length="2.34" shape="701.44,522.65 700.07,523.11 699.19,522.94"/>
    </edge>
    <edge id=":1830597849_4" function="internal">
        <lane id=":1830597849_4_0" index="0" disallow="tram rail_urban rail rail_electric rail_fast ship" speed="3.65" length="2.34" shape="699.19,522.94 698.81,522.13 698.91,520.69"/>
    </edge>
    <edge id=":1830597849_2" function="internal">
        <lane id=":1830597849_2_0" index="0" disallow="tram rail_urban rail rail_electric rail_fast ship" speed="11.18" length="5.25" shape="695.74,524.88 698.91,520.69"/>
    </edge>
    <edge id=":1830597849_3" function="internal">
        <lane id=":1830597849_3_0" index="0" disallow="tram rail_urban rail rail_electric rail_fast ship" speed="3.65" length="2.34" shape="695.74,524.88 697.10,524.39 697.98,524.54"/>
    </edge>
    <edge id=":1830597849_5" function="internal">
        <lane id=":1830597849_5_0" index="0" disallow="tram rail_urban rail rail_electric rail_fast ship" speed="3.65" length="2.34" shape="697.98,524.54 698.38,525.34 698.31,526.78"/>
    </edge>
    <edge id=":1830597851_0" function="internal">