<?xml version="1.0" encoding="UTF-8"?>

<!-- generated on 08/25/21 10:55:08 by Eclipse SUMO netgenerate Version 1.8.0
<configuration xmlns:xsi="http://www.w3.org/2001/XMLSchema-instance" xsi:noNamespaceSchemaLocation="http://sumo.dlr.de/xsd/netgenerateConfiguration.xsd">

    <random_network>
        <rand value="true"/>
        <rand.iterations value="20"/>
        <rand.random-lanenumber value="true"/>
    </random_network>

    <output>
        <output-file value="rand20.net.xml"/>
    </output>

    <building_defaults>
        <default.lanenumber value="3"/>
        <default-junction-type value="traffic_light"/>
    </building_defaults>

    <junctions>
        <no-turnarounds value="true"/>
    </junctions>

</configuration>
-->

<net version="1.6" junctionCornerDetail="5" limitTurnSpeed="5.50" xmlns:xsi="http://www.w3.org/2001/XMLSchema-instance" xsi:noNamespaceSchemaLocation="http://sumo.dlr.de/xsd/net_file.xsd">

    <location netOffset="230.76,565.34" convBoundary="0.00,0.00,751.66,878.95" origBoundary="-230.76,-565.34,520.90,313.61" projParameter="!"/>

    <edge id=":1_0" function="internal">
        <lane id=":1_0_0" index="0" speed="5.98" length="9.08" shape="226.21,581.29 225.81,578.72 224.68,577.14 222.83,576.56 220.26,576.97"/>
    </edge>
    <edge id=":1_1" function="internal">
        <lane id=":1_1_0" index="0" speed="13.89" length="28.08" shape="226.21,581.29 226.11,574.67 225.79,568.85 224.89,562.38 223.06,553.82"/>
        <lane id=":1_1_1" index="1" speed="13.89" length="28.08" shape="229.41,581.24 229.31,574.56 228.98,568.58 228.05,561.89 226.17,553.08"/>
    </edge>
    <edge id=":1_3" function="internal">
        <lane id=":1_3_0" index="0" speed="10.40" length="11.41" shape="229.41,581.24 230.21,573.59 231.87,570.26"/>
    </edge>
    <edge id=":1_14" function="internal">
        <lane id=":1_14_0" index="0" speed="10.40" length="14.31" shape="231.87,570.26 232.89,568.21 237.45,565.09 243.89,564.23"/>
    </edge>
    <edge id=":1_4" function="internal">
        <lane id=":1_4_0" index="0" speed="8.75" length="17.90" shape="243.77,567.43 240.20,568.17 237.69,570.70 236.23,575.03 235.81,581.14"/>
    </edge>
    <edge id=":1_5" function="internal">
        <lane id=":1_5_0" index="0" speed="13.89" length="25.38" shape="243.77,567.43 239.54,567.84 234.19,569.20 227.52,571.30 219.31,573.92"/>
    </edge>
    <edge id=":1_6" function="internal">
        <lane id=":1_6_0" index="0" speed="11.63" length="10.11" shape="243.77,567.43 237.31,566.33 234.18,564.63"/>
    </edge>
    <edge id=":1_15" function="internal">
        <lane id=":1_15_0" index="0" speed="11.63" length="14.50" shape="234.18,564.63 232.23,563.57 228.52,559.15 226.17,553.08"/>
    </edge>
    <edge id=":1_7" function="internal">
        <lane id=":1_7_0" index="0" speed="9.64" length="16.65" shape="235.51,550.84 237.22,556.62 239.19,560.79 241.41,563.32 243.89,564.23"/>
    </edge>
    <edge id=":1_8" function="internal">
        <lane id=":1_8_0" index="0" speed="13.89" length="30.13" shape="235.51,550.84 237.01,560.32 236.92,567.71 236.19,574.24 235.81,581.14"/>
        <lane id=":1_8_1" index="1" speed="13.89" length="30.13" shape="232.40,551.58 233.87,560.88 233.74,568.04 233.00,574.37 232.61,581.19"/>
    </edge>
    <edge id=":1_10" function="internal">
        <lane id=":1_10_0" index="0" speed="10.55" length="8.16" shape="229.29,552.33 229.87,558.77 229.37,560.39"/>
    </edge>
    <edge id=":1_16" function="internal">
        <lane id=":1_16_0" index="0" speed="10.55" length="16.03" shape="229.37,560.39 228.25,564.01 224.41,568.04 218.36,570.86"/>
    </edge>
    <edge id=":1_11" function="internal">
        <lane id=":1_11_0" index="0" speed="6.79" length="9.43" shape="215.51,561.69 217.94,560.58 219.48,559.03 220.16,557.02 219.95,554.57"/>
    </edge>
    <edge id=":1_12" function="internal">
        <lane id=":1_12_0" index="0" speed="13.89" length="27.69" shape="216.46,564.75 225.57,562.93 233.21,562.90 239.34,563.66 243.89,564.23"/>
    </edge>
    <edge id=":1_13" function="internal">
        <lane id=":1_13_0" index="0" speed="9.51" length="12.11" shape="217.41,567.81 223.96,566.91 228.67,568.84 228.89,569.19"/>
    </edge>
    <edge id=":1_17" function="internal">
        <lane id=":1_17_0" index="0" speed="9.51" length="12.82" shape="228.89,569.19 231.56,573.60 232.61,581.19"/>
    </edge>
    <edge id=":115_0" function="internal">
        <lane id=":115_0_0" index="0" speed="6.12" length="10.09" shape="395.84,246.28 398.59,247.30 400.00,248.87 400.07,250.98 398.79,253.63"/>
    </edge>
    <edge id=":115_1" function="internal">
        <lane id=":115_1_0" index="0" speed="3.93" length="3.36" shape="396.13,251.85 396.56,250.97 396.53,250.26 396.06,249.74 395.15,249.40"/>
    </edge>
    <edge id=":12_0" function="internal">
        <lane id=":12_0_0" index="0" speed="13.89" length="23.09" shape="311.27,399.56 308.15,396.73 303.48,394.14 297.64,391.61 290.97,388.96"/>
    </edge>
    <edge id=":12_1" function="internal">
        <lane id=":12_1_0" index="0" speed="13.89" length="26.89" shape="311.27,399.56 308.33,394.80 304.63,387.89 301.15,380.85 298.88,375.72"/>
    </edge>
    <edge id=":12_2" function="internal">
        <lane id=":12_2_0" index="0" speed="11.25" length="10.13" shape="311.27,399.56 308.53,394.66 307.66,390.23"/>
    </edge>
    <edge id=":12_3" function="internal">
        <lane id=":12_3_0" index="0" speed="7.90" length="8.31" shape="311.27,399.56 308.56,394.63 308.58,391.94"/>
    </edge>
    <edge id=":12_20" function="internal">
        <lane id=":12_20_0" index="0" speed="11.25" length="11.32" shape="307.66,390.23 307.56,389.69 308.34,384.66 310.88,379.57"/>
    </edge>
    <edge id=":12_21" function="internal">
        <lane id=":12_21_0" index="0" speed="7.90" length="10.69" shape="308.58,391.94 308.58,390.82 311.35,388.13 316.84,386.56"/>
    </edge>
    <edge id=":12_4" function="internal">
        <lane id=":12_4_0" index="0" speed="6.31" length="11.62" shape="317.31,389.73 313.93,390.69 312.22,392.33 312.19,394.65 313.84,397.65"/>
    </edge>
    <edge id=":12_5" function="internal">
        <lane id=":12_5_0" index="0" speed="13.89" length="26.63" shape="317.31,389.73 312.41,390.44 305.77,391.00 298.31,390.74 290.97,388.96"/>
    </edge>
    <edge id=":12_6" function="internal">
        <lane id=":12_6_0" index="0" speed="11.48" length="12.88" shape="317.31,389.73 311.53,389.53 306.53,387.13 305.48,385.99"/>
    </edge>
    <edge id=":12_7" function="internal">
        <lane id=":12_7_0" index="0" speed="7.40" length="10.72" shape="317.31,389.73 311.41,389.90 308.38,388.26 308.31,386.89"/>
    </edge>
    <edge id=":12_22" function="internal">
        <lane id=":12_22_0" index="0" speed="11.48" length="12.32" shape="305.48,385.99 302.31,382.53 298.88,375.72"/>
    </edge>
    <edge id=":12_23" function="internal">
        <lane id=":12_23_0" index="0" speed="7.40" length="7.96" shape="308.31,386.89 308.20,384.82 310.88,379.57"/>
    </edge>
    <edge id=":12_8" function="internal">
        <lane id=":12_8_0" index="0" speed="5.50" length="9.60" shape="313.54,381.35 312.17,384.04 312.26,385.81 313.82,386.65 316.84,386.56"/>
    </edge>
    <edge id=":12_9" function="internal">
        <lane id=":12_9_0" index="0" speed="10.20" length="17.50" shape="313.54,381.35 311.46,385.51 310.82,389.61 311.61,393.66 313.84,397.65"/>
    </edge>
    <edge id=":12_10" function="internal">
        <lane id=":12_10_0" index="0" speed="11.14" length="23.92" shape="313.54,381.35 309.60,385.53 304.73,387.70 298.91,387.85 292.15,385.99"/>
    </edge>
    <edge id=":12_11" function="internal">
        <lane id=":12_11_0" index="0" speed="8.20" length="21.98" shape="313.54,381.35 309.65,385.45 305.91,385.88 302.32,382.64 298.88,375.72"/>
    </edge>
    <edge id=":12_12" function="internal">
        <lane id=":12_12_0" index="0" speed="6.65" length="13.93" shape="301.87,374.58 304.12,379.29 306.38,381.69 308.63,381.79 310.88,379.57"/>
    </edge>
    <edge id=":12_13" function="internal">
        <lane id=":12_13_0" index="0" speed="10.48" length="20.84" shape="301.87,374.58 304.74,380.36 308.19,384.29 312.23,386.36 316.84,386.56"/>
    </edge>
    <edge id=":12_14" function="internal">
        <lane id=":12_14_0" index="0" speed="13.89" length="26.02" shape="301.87,374.58 304.08,379.59 307.41,386.36 310.96,393.01 313.84,397.65"/>
    </edge>
    <edge id=":12_15" function="internal">
        <lane id=":12_15_0" index="0" speed="8.19" length="8.21" shape="301.87,374.58 303.86,382.05 303.76,382.51"/>
    </edge>
    <edge id=":12_24" function="internal">
        <lane id=":12_24_0" index="0" speed="8.19" length="15.22" shape="303.76,382.51 302.90,386.45 299.00,387.76 292.15,385.99"/>
    </edge>
    <edge id=":12_16" function="internal">
        <lane id=":12_16_0" index="0" speed="5.49" length="9.62" shape="294.52,380.04 297.46,380.83 299.16,380.38 299.64,378.67 298.88,375.72"/>
    </edge>
    <edge id=":12_17" function="internal">
        <lane id=":12_17_0" index="0" speed="9.61" length="17.56" shape="294.52,380.04 300.29,381.90 304.95,382.45 308.48,381.67 310.88,379.57"/>
    </edge>
    <edge id=":12_18" function="internal">
        <lane id=":12_18_0" index="0" speed="13.89" length="23.43" shape="294.52,380.04 301.23,382.72 307.31,384.96 312.57,386.37 316.84,386.56"/>
    </edge>
    <edge id=":12_19" function="internal">
        <lane id=":12_19_0" index="0" speed="13.89" length="13.02" shape="293.33,383.01 300.04,386.30 304.67,389.36"/>
    </edge>
    <edge id=":12_25" function="internal">
        <lane id=":12_25_0" index="0" speed="13.89" length="12.40" shape="304.67,389.36 305.95,390.21 310.68,394.19 313.84,397.65"/>
    </edge>
    <edge id=":124_0" function="internal">
        <lane id=":124_0_0" index="0" speed="11.26" length="33.84" shape="748.83,621.70 753.95,629.45 753.91,636.21 749.42,642.37 741.19,648.34"/>
    </edge>
    <edge id=":124_1" function="internal">
        <lane id=":124_1_0" index="0" speed="10.26" length="27.84" shape="746.50,623.89 750.61,630.24 750.34,635.73 746.41,640.73 739.53,645.61"/>
    </edge>
    <edge id=":124_2" function="internal">
        <lane id=":124_2_0" index="0" speed="6.10" length="9.06" shape="736.20,640.14 738.18,638.51 739.00,636.72 738.68,634.78 737.20,632.69"/>
    </edge>
    <edge id=":124_3" function="internal">
        <lane id=":124_3_0" index="0" speed="7.68" length="15.06" shape="737.86,642.87 741.15,640.16 742.52,637.19 741.98,633.97 739.53,630.49"/>
    </edge>
    <edge id=":124_4" function="internal">
        <lane id=":124_4_0" index="0" speed="8.36" length="18.11" shape="737.86,642.87 742.34,639.39 744.50,635.79 744.34,632.09 741.85,628.29"/>
    </edge>
    <edge id=":14_0" function="internal">
        <lane id=":14_0_0" index="0" speed="8.40" length="14.78" shape="121.43,218.49 118.98,213.79 116.49,210.70 113.96,209.20 111.39,209.30"/>
    </edge>
    <edge id=":14_1" function="internal">
        <lane id=":14_1_0" index="0" speed="9.28" length="26.94" shape="121.43,218.49 119.02,210.75 119.24,204.28 122.55,200.01 129.41,198.88"/>
    </edge>
    <edge id=":14_2" function="internal">
        <lane id=":14_2_0" index="0" speed="8.83" length="24.20" shape="121.43,218.49 118.96,210.81 119.43,205.51 122.82,202.60 129.14,202.07"/>
    </edge>
    <edge id=":14_3" function="internal">
        <lane id=":14_3_0" index="0" speed="5.69" length="9.22" shape="128.32,211.63 125.57,211.77 123.99,212.74 123.59,214.55 124.36,217.19"/>
    </edge>
    <edge id=":14_4" function="internal">
        <lane id=":14_4_0" index="0" speed="13.89" length="18.14" shape="128.59,208.45 123.43,207.87 119.82,207.54 116.30,207.87 111.39,209.30"/>
        <lane id=":14_4_1" index="1" speed="13.89" length="18.14" shape="128.86,205.26 123.30,204.66 119.42,204.33 115.63,204.72 110.34,206.28"/>
    </edge>
    <edge id=":14_6" function="internal">
        <lane id=":14_6_0" index="0" speed="13.89" length="21.56" shape="108.23,200.24 114.03,198.01 118.40,196.38 123.05,195.55 129.68,195.69"/>
        <lane id=":14_6_1" index="1" speed="13.89" length="21.56" shape="109.28,203.26 114.97,201.06 119.04,199.51 123.26,198.73 129.41,198.88"/>
    </edge>
    <edge id=":14_8" function="internal">
        <lane id=":14_8_0" index="0" speed="10.21" length="4.71" shape="109.28,203.26 113.11,203.12 113.86,203.57"/>
    </edge>
    <edge id=":14_9" function="internal">
        <lane id=":14_9_0" index="0" speed="10.21" length="17.56" shape="113.86,203.57 116.91,205.40 120.65,210.09 124.36,217.19"/>
    </edge>
    <edge id=":18_0" function="internal">
        <lane id=":18_0_0" index="0" speed="9.46" length="14.45" shape="621.68,510.44 618.89,508.24 615.74,507.14 612.22,507.13 608.33,508.22"/>
    </edge>
    <edge id=":18_1" function="internal">
        <lane id=":18_1_0" index="0" speed="13.89" length="19.91" shape="621.68,510.44 617.63,506.32 614.69,503.68 611.58,501.21 607.04,497.62"/>
        <lane id=":18_1_1" index="1" speed="13.89" length="19.91" shape="624.00,508.24 619.87,504.03 616.86,501.33 613.69,498.81 609.06,495.13"/>
        <lane id=":18_1_2" index="2" speed="13.89" length="19.91" shape="626.33,506.05 622.11,501.74 619.04,498.98 615.80,496.40 611.08,492.65"/>
    </edge>
    <edge id=":18_4" function="internal">
        <lane id=":18_4_0" index="0" speed="12.50" length="4.66" shape="626.33,506.05 624.54,502.74 624.45,501.84"/>
    </edge>
    <edge id=":18_16" function="internal">
        <lane id=":18_16_0" index="0" speed="12.50" length="18.00" shape="624.45,501.84 624.07,498.00 624.91,491.83 627.06,484.21"/>
    </edge>
    <edge id=":18_5" function="internal">
        <lane id=":18_5_0" index="0" speed="9.83" length="13.76" shape="633.13,486.26 631.93,490.68 631.56,494.35 632.02,497.27 633.30,499.45"/>
    </edge>
    <edge id=":18_6" function="internal">
        <lane id=":18_6_0" index="0" speed="13.89" length="34.13" shape="633.13,486.26 629.83,492.83 624.59,498.68 617.43,503.81 608.33,508.22"/>
    </edge>
    <edge id=":18_7" function="internal">
        <lane id=":18_7_0" index="0" speed="9.47" length="13.62" shape="630.10,485.24 626.64,492.43 622.32,496.06"/>
    </edge>
    <edge id=":18_17" function="internal">
        <lane id=":18_17_0" index="0" speed="9.47" length="12.17" shape="622.32,496.06 617.13,496.13 611.08,492.65"/>
    </edge>
    <edge id=":18_8" function="internal">
        <lane id=":18_8_0" index="0" speed="5.87" length="9.11" shape="617.12,485.19 619.39,486.56 621.30,486.68 622.84,485.56 624.03,483.19"/>
    </edge>
    <edge id=":18_9" function="internal">
        <lane id=":18_9_0" index="0" speed="13.89" length="21.18" shape="617.12,485.19 622.14,489.18 625.58,491.93 628.83,494.87 633.30,499.45"/>
        <lane id=":18_9_1" index="1" speed="13.89" length="21.18" shape="615.11,487.68 620.03,491.59 623.40,494.28 626.59,497.16 630.98,501.65"/>
        <lane id=":18_9_2" index="2" speed="13.89" length="21.18" shape="613.09,490.16 617.92,494.00 621.22,496.63 624.35,499.45 628.65,503.85"/>
    </edge>
    <edge id=":18_12" function="internal">
        <lane id=":18_12_0" index="0" speed="8.98" length="7.67" shape="613.09,490.16 617.78,495.34 617.89,496.02"/>
    </edge>
    <edge id=":18_18" function="internal">
        <lane id=":18_18_0" index="0" speed="8.98" length="17.49" shape="617.89,496.02 618.55,500.07 615.40,504.37 608.33,508.22"/>
    </edge>
    <edge id=":18_13" function="internal">
        <lane id=":18_13_0" index="0" speed="5.95" length="10.24" shape="607.13,505.26 609.46,503.84 610.23,502.09 609.42,500.02 607.04,497.62"/>
    </edge>
    <edge id=":18_14" function="internal">
        <lane id=":18_14_0" index="0" speed="13.89" length="29.92" shape="607.13,505.26 613.95,501.70 619.54,497.00 623.91,491.17 627.06,484.21"/>
    </edge>
    <edge id=":18_15" function="internal">
        <lane id=":18_15_0" index="0" speed="11.71" length="10.14" shape="607.13,505.26 614.68,502.67 616.81,502.29"/>
    </edge>
    <edge id=":18_19" function="internal">
        <lane id=":18_19_0" index="0" speed="11.71" length="12.44" shape="616.81,502.29 620.79,501.57 625.44,501.96 628.65,503.85"/>
    </edge>
    <edge id=":2_0" function="internal">
        <lane id=":2_0_0" index="0" speed="13.89" length="28.50" shape="172.77,358.10 171.34,348.49 171.27,340.46 171.45,334.17 170.74,329.76"/>
    </edge>
    <edge id=":2_1" function="internal">
        <lane id=":2_1_0" index="0" speed="9.01" length="6.59" shape="179.00,356.61 178.95,350.01"/>
    </edge>
    <edge id=":2_7" function="internal">
        <lane id=":2_7_0" index="0" speed="9.01" length="20.27" shape="178.95,350.01 178.95,349.32 182.28,344.57 188.12,342.71 195.63,344.15"/>
    </edge>
    <edge id=":2_2" function="internal">
        <lane id=":2_2_0" index="0" speed="5.58" length="9.36" shape="193.26,350.09 190.48,349.38 188.74,349.85 188.02,351.51 188.33,354.36"/>
    </edge>
    <edge id=":2_3" function="internal">
        <lane id=":2_3_0" index="0" speed="13.89" length="29.72" shape="194.44,347.12 187.11,343.49 179.87,338.77 173.99,333.88 170.74,329.76"/>
    </edge>
    <edge id=":2_4" function="internal">
        <lane id=":2_4_0" index="0" speed="13.89" length="26.72" shape="173.67,328.46 176.83,331.86 182.51,335.15 189.56,338.27 196.81,341.17"/>
    </edge>
    <edge id=":2_5" function="internal">
        <lane id=":2_5_0" index="0" speed="13.89" length="28.92" shape="173.67,328.46 175.85,332.57 178.93,338.21 182.27,345.63 185.22,355.11"/>
        <lane id=":2_5_1" index="1" speed="13.89" length="28.92" shape="173.67,328.46 175.37,332.71 177.39,338.65 179.66,346.34 182.11,355.86"/>
    </edge>
    <edge id=":24_0" function="internal">
        <lane id=":24_0_0" index="0" speed="5.74" length="9.18" shape="556.36,772.33 555.59,769.72 554.27,768.40 552.40,768.35 549.98,769.59"/>
    </edge>
    <edge id=":24_1" function="internal">
        <lane id=":24_1_0" index="0" speed="13.89" length="29.42" shape="556.36,772.33 555.38,765.64 554.11,759.65 551.68,753.27 547.22,745.41"/>
        <lane id=":24_1_1" index="1" speed="13.89" length="29.42" shape="559.52,771.85 558.52,765.04 557.17,758.75 554.60,751.98 549.91,743.68"/>
    </edge>
    <edge id=":24_3" function="internal">
        <lane id=":24_3_0" index="0" speed="13.87" length="12.73" shape="559.52,771.85 559.15,763.15 560.05,759.23"/>
    </edge>
    <edge id=":24_4" function="internal">
        <lane id=":24_4_0" index="0" speed="8.46" length="7.78" shape="559.52,771.85 559.87,765.14 560.45,764.25"/>
    </edge>
    <edge id=":24_25" function="internal">
        <lane id=":24_25_0" index="0" speed="13.87" length="18.47" shape="560.05,759.23 560.86,755.72 564.67,749.58 570.56,744.71"/>
    </edge>
    <edge id=":24_26" function="internal">
        <lane id=":24_26_0" index="0" speed="8.46" length="16.07" shape="560.45,764.25 562.81,760.58 567.71,758.83 573.98,760.51"/>
    </edge>
    <edge id=":24_5" function="internal">
        <lane id=":24_5_0" index="0" speed="5.73" length="10.10" shape="570.96,766.15 568.26,765.17 566.51,765.63 565.71,767.54 565.85,770.89"/>
    </edge>
    <edge id=":24_6" function="internal">
        <lane id=":24_6_0" index="0" speed="12.75" length="24.10" shape="570.96,766.15 564.95,763.74 559.15,763.07 553.55,764.15 548.15,766.96"/>
    </edge>
    <edge id=":24_7" function="internal">
        <lane id=":24_7_0" index="0" speed="13.89" length="31.17" shape="570.96,766.15 564.67,762.69 558.82,758.74 553.11,753.31 547.22,745.41"/>
        <lane id=":24_7_1" index="1" speed="13.89" length="31.17" shape="572.47,763.33 566.37,760.03 560.92,756.45 555.61,751.40 549.91,743.68"/>
    </edge>
    <edge id=":24_9" function="internal">
        <lane id=":24_9_0" index="0" speed="8.99" length="25.59" shape="572.47,763.33 565.88,758.69 563.36,754.04 564.92,749.38 570.56,744.71"/>
    </edge>
    <edge id=":24_10" function="internal">
        <lane id=":24_10_0" index="0" speed="5.96" length="10.40" shape="573.89,750.18 571.81,751.97 571.39,753.82 572.62,755.73 575.50,757.69"/>
    </edge>
    <edge id=":24_11" function="internal">
        <lane id=":24_11_0" index="0" speed="12.12" length="23.65" shape="573.89,750.18 569.55,753.81 566.76,758.47 565.53,764.16 565.85,770.89"/>
    </edge>
    <edge id=":24_12" function="internal">
        <lane id=":24_12_0" index="0" speed="13.89" length="30.82" shape="573.89,750.18 548.15,766.96"/>
        <lane id=":24_12_1" index="1" speed="13.89" length="30.82" shape="572.23,747.44 546.33,764.33"/>
    </edge>
    <edge id=":24_14" function="internal">
        <lane id=":24_14_0" index="0" speed="10.69" length="10.93" shape="572.23,747.44 565.47,750.48 561.95,750.70"/>
    </edge>
    <edge id=":24_27" function="internal">
        <lane id=":24_27_0" index="0" speed="10.69" length="14.71" shape="561.95,750.70 559.50,750.86 554.31,748.60 549.91,743.68"/>
    </edge>
    <edge id=":24_15" function="internal">
        <lane id=":24_15_0" index="0" speed="7.74" length="12.96" shape="557.99,738.50 560.42,741.44 563.05,743.00 565.88,743.18 568.90,741.98"/>
    </edge>
    <edge id=":24_16" function="internal">
        <lane id=":24_16_0" index="0" speed="13.89" length="26.38" shape="557.99,738.50 562.45,745.44 566.07,750.42 570.03,754.23 575.50,757.69"/>
    </edge>
    <edge id=":24_17" function="internal">
        <lane id=":24_17_0" index="0" speed="13.89" length="33.08" shape="557.99,738.50 562.43,747.49 564.40,755.72 565.13,763.43 565.85,770.89"/>
        <lane id=":24_17_1" index="1" speed="13.89" length="33.08" shape="555.30,740.23 559.66,749.03 561.47,756.82 562.04,764.11 562.69,771.37"/>
    </edge>
    <edge id=":24_19" function="internal">
        <lane id=":24_19_0" index="0" speed="10.85" length="8.30" shape="552.60,741.96 555.21,748.02 555.16,749.72"/>
    </edge>
    <edge id=":24_28" function="internal">
        <lane id=":24_28_0" index="0" speed="10.85" length="17.94" shape="555.16,749.72 555.03,753.77 552.07,759.21 546.33,764.33"/>
    </edge>
    <edge id=":24_20" function="internal">
        <lane id=":24_20_0" index="0" speed="7.27" length="11.21" shape="540.85,756.45 543.58,754.13 545.11,751.80 545.42,749.47 544.53,747.14"/>
    </edge>
    <edge id=":24_21" function="internal">
        <lane id=":24_21_0" index="0" speed="13.89" length="31.52" shape="540.85,756.45 549.23,751.31 556.29,747.95 562.64,745.23 568.90,741.98"/>
        <lane id=":24_21_1" index="1" speed="13.89" length="31.52" shape="542.67,759.08 551.03,753.95 558.03,750.63 564.33,747.95 570.56,744.71"/>
    </edge>
    <edge id=":24_23" function="internal">
        <lane id=":24_23_0" index="0" speed="13.89" length="10.18" shape="544.50,761.70 551.52,758.03 553.73,757.59"/>
    </edge>
    <edge id=":24_24" function="internal">
        <lane id=":24_24_0" index="0" speed="9.25" length="7.72" shape="544.50,761.70 551.06,758.87 551.62,758.97"/>
    </edge>
    <edge id=":24_29" function="internal">
        <lane id=":24_29_0" index="0" speed="13.89" length="20.99" shape="553.73,757.59 558.78,756.60 566.27,757.43 573.98,760.51"/>
    </edge>
    <edge id=":24_30" function="internal">
        <lane id=":24_30_0" index="0" speed="9.25" length="18.34" shape="551.62,758.97 556.47,759.84 560.44,764.17 562.69,771.37"/>
    </edge>
    <edge id=":37_0" function="internal">
        <lane id=":37_0_0" index="0" speed="10.60" length="16.82" shape="241.26,225.76 239.64,223.65 236.57,221.98 232.07,220.75 226.12,219.96"/>
    </edge>
    <edge id=":37_1" function="internal">
        <lane id=":37_1_0" index="0" speed="13.89" length="28.83" shape="241.26,225.76 231.97,198.47"/>
    </edge>
    <edge id=":37_2" function="internal">
        <lane id=":37_2_0" index="0" speed="11.57" length="8.43" shape="241.26,225.76 239.84,219.33 240.13,217.51"/>
    </edge>
    <edge id=":37_3" function="internal">
        <lane id=":37_3_0" index="0" speed="8.54" length="7.72" shape="241.26,225.76 239.90,219.45 240.40,218.30"/>
    </edge>
    <edge id=":37_21" function="internal">
        <lane id=":37_21_0" index="0" speed="11.57" length="17.58" shape="240.13,217.51 240.78,213.48 244.06,208.23 249.68,203.57"/>
    </edge>
    <edge id=":37_22" function="internal">
        <lane id=":37_22_0" index="0" speed="8.54" length="15.90" shape="240.40,218.30 241.60,215.53 246.37,214.01 254.20,214.89"/>
    </edge>
    <edge id=":37_4" function="internal">
        <lane id=":37_4_0" index="0" speed="7.07" length="15.70" shape="253.51,218.01 248.09,217.35 244.74,218.23 243.46,220.65 244.24,224.62"/>
    </edge>
    <edge id=":37_5" function="internal">
        <lane id=":37_5_0" index="0" speed="13.89" length="27.16" shape="253.51,218.01 249.11,217.52 243.19,217.42 235.65,217.30 226.39,216.77"/>
    </edge>
    <edge id=":37_6" function="internal">
        <lane id=":37_6_0" index="0" speed="13.89" length="15.00" shape="253.51,218.01 245.89,215.40 240.13,211.52"/>
    </edge>
    <edge id=":37_7" function="internal">
        <lane id=":37_7_0" index="0" speed="7.50" length="7.28" shape="253.51,218.01 248.51,215.63 247.54,214.18"/>
    </edge>
    <edge id=":37_23" function="internal">
        <lane id=":37_23_0" index="0" speed="13.89" length="15.57" shape="240.13,211.52 239.76,211.27 235.12,205.63 231.97,198.47"/>
    </edge>
    <edge id=":37_24" function="internal">
        <lane id=":37_24_0" index="0" speed="7.50" length="12.44" shape="247.54,214.18 245.94,211.80 246.20,207.46 249.68,203.57"/>
    </edge>
    <edge id=":37_8" function="internal">
        <lane id=":37_8_0" index="0" speed="5.48" length="9.73" shape="253.14,208.95 250.73,210.91 250.11,212.56 251.26,213.88 254.20,214.89"/>
    </edge>
    <edge id=":37_9" function="internal">
        <lane id=":37_9_0" index="0" speed="10.08" length="19.53" shape="253.14,208.95 248.10,212.81 244.93,216.71 243.65,220.65 244.24,224.62"/>
    </edge>
    <edge id=":37_10" function="internal">
        <lane id=":37_10_0" index="0" speed="13.89" length="27.56" shape="253.14,208.95 247.37,212.62 241.82,215.33 235.25,216.81 226.39,216.77"/>
        <lane id=":37_10_1" index="1" speed="13.89" length="27.56" shape="251.41,206.26 245.81,209.84 240.71,212.36 234.77,213.66 226.67,213.58"/>
    </edge>
    <edge id=":37_12" function="internal">
        <lane id=":37_12_0" index="0" speed="9.69" length="25.77" shape="251.41,206.26 244.84,209.21 239.41,208.90 235.12,205.32 231.97,198.47"/>
    </edge>
    <edge id=":37_13" function="internal">
        <lane id=":37_13_0" index="0" speed="7.83" length="16.37" shape="235.03,197.54 236.95,201.40 239.74,203.24 243.41,203.07 247.96,200.87"/>
    </edge>
    <edge id=":37_14" function="internal">
        <lane id=":37_14_0" index="0" speed="13.87" length="27.18" shape="235.03,197.54 237.83,203.89 241.96,208.90 247.42,212.56 254.20,214.89"/>
    </edge>
    <edge id=":37_15" function="internal">
        <lane id=":37_15_0" index="0" speed="13.89" length="28.60" shape="235.03,197.54 244.24,224.62"/>
    </edge>
    <edge id=":37_16" function="internal">
        <lane id=":37_16_0" index="0" speed="8.87" length="8.75" shape="235.03,197.54 236.47,204.99 236.27,206.13"/>
    </edge>
    <edge id=":37_25" function="internal">
        <lane id=":37_25_0" index="0" speed="8.87" length="14.07" shape="236.27,206.13 235.55,210.15 232.29,213.01 226.67,213.58"/>
    </edge>
    <edge id=":37_17" function="internal">
        <lane id=":37_17_0" index="0" speed="5.84" length="9.13" shape="227.48,204.02 230.14,203.87 231.77,202.90 232.38,201.10 231.97,198.47"/>
    </edge>
    <edge id=":37_18" function="internal">
        <lane id=":37_18_0" index="0" speed="13.89" length="21.37" shape="227.48,204.02 233.85,204.66 238.43,204.80 242.66,203.77 247.96,200.87"/>
    </edge>
    <edge id=":37_19" function="internal">
        <lane id=":37_19_0" index="0" speed="13.89" length="28.17" shape="227.21,207.21 236.64,208.76 244.12,211.09 249.89,213.40 254.20,214.89"/>
    </edge>
    <edge id=":37_20" function="internal">
        <lane id=":37_20_0" index="0" speed="12.51" length="13.06" shape="226.94,210.39 232.61,211.67 237.38,214.47 238.53,215.74"/>
    </edge>
    <edge id=":37_26" function="internal">
        <lane id=":37_26_0" index="0" speed="12.51" length="10.64" shape="238.53,215.74 241.26,218.78 244.24,224.62"/>
    </edge>
    <edge id=":63_0" function="internal">
        <lane id=":63_0_0" index="0" speed="7.03" length="4.63" shape="451.98,371.81 450.99,371.15 449.94,370.74 448.82,370.56 447.64,370.62"/>
    </edge>
    <edge id=":63_1" function="internal">
        <lane id=":63_1_0" index="0" speed="13.89" length="20.40" shape="447.17,367.45 455.99,365.79 461.41,363.89 463.43,361.76 462.06,359.38"/>
    </edge>
    <edge id=":63_2" function="internal">
        <lane id=":63_2_0" index="0" speed="12.63" length="15.95" shape="447.17,367.45 454.25,366.18 458.75,364.83 460.68,363.39 460.04,361.87"/>
    </edge>
    <edge id=":63_3" function="internal">
        <lane id=":63_3_0" index="0" speed="10.89" length="11.75" shape="447.17,367.45 452.51,366.57 456.10,365.76 457.94,365.02 458.02,364.35"/>
    </edge>
    <edge id=":8_0" function="internal">
        <lane id=":8_0_0" index="0" speed="11.55" length="16.42" shape="440.56,585.33 437.25,580.64 434.20,577.27 431.40,575.20 428.86,574.45"/>
    </edge>
    <edge id=":8_1" function="internal">
        <lane id=":8_1_0" index="0" speed="13.89" length="19.82" shape="443.25,583.60 440.08,577.87 438.10,573.06 436.57,569.06 434.73,565.75"/>
    </edge>
    <edge id=":8_2" function="internal">
        <lane id=":8_2_0" index="0" speed="9.04" length="8.89" shape="445.94,581.87 444.28,577.44 445.26,573.40"/>
    </edge>
    <edge id=":8_12" function="internal">
        <lane id=":8_12_0" index="0" speed="9.04" length="12.17" shape="445.26,573.40 448.87,569.75 455.12,566.51"/>
    </edge>
    <edge id=":8_3" function="internal">