<?xml version="1.0" encoding="UTF-8"?>

<!-- generated on Sun Aug 29 20:38:16 2021 by Eclipse SUMO netgenerate Version 1.6.0
<configuration xmlns:xsi="http://www.w3.org/2001/XMLSchema-instance" xsi:noNamespaceSchemaLocation="http://sumo.dlr.de/xsd/netgenerateConfiguration.xsd">

    <grid_network>
        <grid value="true"/>
        <grid.number value="5"/>
        <grid.length value="175"/>
    </grid_network>

    <output>
        <output-file value="grid.net.xml"/>
    </output>

    <building_defaults>
        <default.lanenumber value="2"/>
        <default-junction-type value="traffic_light"/>
    </building_defaults>

    <junctions>
        <no-turnarounds value="true"/>
    </junctions>

</configuration>
-->

<net version="1.6" junctionCornerDetail="5" limitTurnSpeed="5.50" xmlns:xsi="http://www.w3.org/2001/XMLSchema-instance" xsi:noNamespaceSchemaLocation="http://sumo.dlr.de/xsd/net_file.xsd">

    <location netOffset="0.00,0.00" convBoundary="0.00,0.00,700.00,700.00" origBoundary="0.00,0.00,700.00,700.00" projParameter="!"/>

    <edge id=":A0_0" function="internal">
        <lane id=":A0_0_0" index="0" speed="8.96" length="18.06" shape="-4.80,6.40 -4.10,1.50 -2.00,-2.00 1.50,-4.10 6.40,-4.80"/>
    </edge>
    <edge id=":A0_1" function="internal">
        <lane id=":A0_1_0" index="0" speed="7.66" length="12.90" shape="-1.60,6.40 -1.10,2.90 0.40,0.40 2.90,-1.10 6.40,-1.60"/>
    </edge>
    <edge id=":A0_2" function="internal">
        <lane id=":A0_2_0" index="0" speed="3.90" length="2.58" shape="6.40,4.80 5.70,4.90 5.20,5.20 4.90,5.70 4.80,6.40"/>
    </edge>
    <edge id=":A0_3" function="internal">
        <lane id=":A0_3_0" index="0" speed="6.08" length="7.74" shape="6.40,1.60 4.30,1.90 2.80,2.80 1.90,4.30 1.60,6.40"/>
    </edge>
    <edge id=":A1_0" function="internal">
        <lane id=":A1_0_0" index="0" speed="13.89" length="20.80" shape="-4.80,185.40 -4.80,164.60"/>
        <lane id=":A1_0_1" index="1" speed="13.89" length="20.80" shape="-1.60,185.40 -1.60,164.60"/>
    </edge>
    <edge id=":A1_2" function="internal">
        <lane id=":A1_2_0" index="0" speed="9.26" length="6.96" shape="-1.60,185.40 -0.85,180.15 -0.00,178.73"/>
    </edge>
    <edge id=":A1_9" function="internal">
        <lane id=":A1_9_0" index="0" speed="9.26" length="12.40" shape="-0.00,178.73 1.40,176.40 5.15,174.15 10.40,173.40"/>
    </edge>
    <edge id=":A1_3" function="internal">
        <lane id=":A1_3_0" index="0" speed="6.51" length="9.03" shape="10.40,179.80 7.95,180.15 6.20,181.20 5.15,182.95 4.80,185.40"/>
    </edge>
    <edge id=":A1_4" function="internal">
        <lane id=":A1_4_0" index="0" speed="8.00" length="14.19" shape="10.40,176.60 6.55,177.15 3.80,178.80 2.15,181.55 1.60,185.40"/>
    </edge>
    <edge id=":A1_5" function="internal">
        <lane id=":A1_5_0" index="0" speed="9.26" length="19.35" shape="10.40,176.60 5.15,175.85 1.40,173.60 -0.85,169.85 -1.60,164.60"/>
    </edge>
    <edge id=":A1_6" function="internal">
        <lane id=":A1_6_0" index="0" speed="6.51" length="9.03" shape="4.80,164.60 5.15,167.05 6.20,168.80 7.95,169.85 10.40,170.20"/>
    </edge>
    <edge id=":A1_7" function="internal">
        <lane id=":A1_7_0" index="0" speed="13.89" length="20.80" shape="4.80,164.60 4.80,185.40"/>
        <lane id=":A1_7_1" index="1" speed="13.89" length="20.80" shape="1.60,164.60 1.60,185.40"/>
    </edge>
    <edge id=":A2_0" function="internal">
        <lane id=":A2_0_0" index="0" speed="13.89" length="20.80" shape="-4.80,360.40 -4.80,339.60"/>
        <lane id=":A2_0_1" index="1" speed="13.89" length="20.80" shape="-1.60,360.40 -1.60,339.60"/>
    </edge>
    <edge id=":A2_2" function="internal">
        <lane id=":A2_2_0" index="0" speed="9.26" length="6.96" shape="-1.60,360.40 -0.85,355.15 0.00,353.73"/>
    </edge>
    <edge id=":A2_9" function="internal">
        <lane id=":A2_9_0" index="0" speed="9.26" length="12.40" shape="0.00,353.73 1.40,351.40 5.15,349.15 10.40,348.40"/>
    </edge>
    <edge id=":A2_3" function="internal">
        <lane id=":A2_3_0" index="0" speed="6.51" length="9.03" shape="10.40,354.80 7.95,355.15 6.20,356.20 5.15,357.95 4.80,360.40"/>
    </edge>
    <edge id=":A2_4" function="internal">
        <lane id=":A2_4_0" index="0" speed="8.00" length="14.19" shape="10.40,351.60 6.55,352.15 3.80,353.80 2.15,356.55 1.60,360.40"/>
    </edge>
    <edge id=":A2_5" function="internal">
        <lane id=":A2_5_0" index="0" speed="9.26" length="19.35" shape="10.40,351.60 5.15,350.85 1.40,348.60 -0.85,344.85 -1.60,339.60"/>
    </edge>
    <edge id=":A2_6" function="internal">
        <lane id=":A2_6_0" index="0" speed="6.51" length="9.03" shape="4.80,339.60 5.15,342.05 6.20,343.80 7.95,344.85 10.40,345.20"/>
    </edge>
    <edge id=":A2_7" function="internal">
        <lane id=":A2_7_0" index="0" speed="13.89" length="20.80" shape="4.80,339.60 4.80,360.40"/>
        <lane id=":A2_7_1" index="1" speed="13.89" length="20.80" shape="1.60,339.60 1.60,360.40"/>
    </edge>
    <edge id=":A3_0" function="internal">
        <lane id=":A3_0_0" index="0" speed="13.89" length="20.80" shape="-4.80,535.40 -4.80,514.60"/>
        <lane id=":A3_0_1" index="1" speed="13.89" length="20.80" shape="-1.60,535.40 -1.60,514.60"/>
    </edge>
    <edge id=":A3_2" function="internal">
        <lane id=":A3_2_0" index="0" speed="9.26" length="6.96" shape="-1.60,535.40 -0.85,530.15 -0.00,528.73"/>
    </edge>
    <edge id=":A3_9" function="internal">
        <lane id=":A3_9_0" index="0" speed="9.26" length="12.40" shape="-0.00,528.73 1.40,526.40 5.15,524.15 10.40,523.40"/>
    </edge>
    <edge id=":A3_3" function="internal">
        <lane id=":A3_3_0" index="0" speed="6.51" length="9.03" shape="10.40,529.80 7.95,530.15 6.20,531.20 5.15,532.95 4.80,535.40"/>
    </edge>
    <edge id=":A3_4" function="internal">
        <lane id=":A3_4_0" index="0" speed="8.00" length="14.19" shape="10.40,526.60 6.55,527.15 3.80,528.80 2.15,531.55 1.60,535.40"/>
    </edge>
    <edge id=":A3_5" function="internal">
        <lane id=":A3_5_0" index="0" speed="9.26" length="19.35" shape="10.40,526.60 5.15,525.85 1.40,523.60 -0.85,519.85 -1.60,514.60"/>
    </edge>
    <edge id=":A3_6" function="internal">
        <lane id=":A3_6_0" index="0" speed="6.51" length="9.03" shape="4.80,514.60 5.15,517.05 6.20,518.80 7.95,519.85 10.40,520.20"/>
    </edge>
    <edge id=":A3_7" function="internal">
        <lane id=":A3_7_0" index="0" speed="13.89" length="20.80" shape="4.80,514.60 4.80,535.40"/>
        <lane id=":A3_7_1" index="1" speed="13.89" length="20.80" shape="1.60,514.60 1.60,535.40"/>
    </edge>
    <edge id=":A4_0" function="internal">
        <lane id=":A4_0_0" index="0" speed="8.96" length="18.06" shape="6.40,704.80 1.50,704.10 -2.00,702.00 -4.10,698.50 -4.80,693.60"/>
    </edge>
    <edge id=":A4_1" function="internal">
        <lane id=":A4_1_0" index="0" speed="7.66" length="12.90" shape="6.40,701.60 2.90,701.10 0.40,699.60 -1.10,697.10 -1.60,693.60"/>
    </edge>
    <edge id=":A4_2" function="internal">
        <lane id=":A4_2_0" index="0" speed="3.90" length="2.58" shape="4.80,693.60 4.90,694.30 5.20,694.80 5.70,695.10 6.40,695.20"/>
    </edge>
    <edge id=":A4_3" function="internal">
        <lane id=":A4_3_0" index="0" speed="6.08" length="7.74" shape="1.60,693.60 1.90,695.70 2.80,697.20 4.30,698.10 6.40,698.40"/>
    </edge>
    <edge id=":B0_0" function="internal">
        <lane id=":B0_0_0" index="0" speed="6.51" length="9.03" shape="170.20,10.40 169.85,7.95 168.80,6.20 167.05,5.15 164.60,4.80"/>
    </edge>
    <edge id=":B0_1" function="internal">
        <lane id=":B0_1_0" index="0" speed="8.00" length="14.19" shape="173.40,10.40 172.85,6.55 171.20,3.80 168.45,2.15 164.60,1.60"/>
    </edge>
    <edge id=":B0_2" function="internal">
        <lane id=":B0_2_0" index="0" speed="9.26" length="19.35" shape="173.40,10.40 174.15,5.15 176.40,1.40 180.15,-0.85 185.40,-1.60"/>
    </edge>
    <edge id=":B0_3" function="internal">
        <lane id=":B0_3_0" index="0" speed="6.51" length="9.03" shape="185.40,4.80 182.95,5.15 181.20,6.20 180.15,7.95 179.80,10.40"/>
    </edge>
    <edge id=":B0_4" function="internal">
        <lane id=":B0_4_0" index="0" speed="13.89" length="20.80" shape="185.40,4.80 164.60,4.80"/>
        <lane id=":B0_4_1" index="1" speed="13.89" length="20.80" shape="185.40,1.60 164.60,1.60"/>
    </edge>
    <edge id=":B0_6" function="internal">
        <lane id=":B0_6_0" index="0" speed="13.89" length="20.80" shape="164.60,-4.80 185.40,-4.80"/>
        <lane id=":B0_6_1" index="1" speed="13.89" length="20.80" shape="164.60,-1.60 185.40,-1.60"/>
    </edge>
    <edge id=":B0_8" function="internal">
        <lane id=":B0_8_0" index="0" speed="9.26" length="6.96" shape="164.60,-1.60 169.85,-0.85 171.27,-0.00"/>
    </edge>
    <edge id=":B0_9" function="internal">
        <lane id=":B0_9_0" index="0" speed="9.26" length="12.40" shape="171.27,-0.00 173.60,1.40 175.85,5.15 176.60,10.40"/>
    </edge>
    <edge id=":B1_0" function="internal">
        <lane id=":B1_0_0" index="0" speed="6.51" length="9.03" shape="170.20,185.40 169.85,182.95 168.80,181.20 167.05,180.15 164.60,179.80"/>
    </edge>
    <edge id=":B1_1" function="internal">
        <lane id=":B1_1_0" index="0" speed="13.89" length="20.80" shape="170.20,185.40 170.20,164.60"/>
        <lane id=":B1_1_1" index="1" speed="13.89" length="20.80" shape="173.40,185.40 173.40,164.60"/>
    </edge>
    <edge id=":B1_3" function="internal">
        <lane id=":B1_3_0" index="0" speed="9.26" length="6.96" shape="173.40,185.40 174.15,180.15 175.00,178.73"/>
    </edge>
    <edge id=":B1_16" function="internal">
        <lane id=":B1_16_0" index="0" speed="9.26" length="12.40" shape="175.00,178.73 176.40,176.40 180.15,174.15 185.40,173.40"/>
    </edge>
    <edge id=":B1_4" function="internal">
        <lane id=":B1_4_0" index="0" speed="6.51" length="9.03" shape="185.40,179.80 182.95,180.15 181.20,181.20 180.15,182.95 179.80,185.40"/>
    </edge>
    <edge id=":B1_5" function="internal">
        <lane id=":B1_5_0" index="0" speed="13.89" length="20.80" shape="185.40,179.80 164.60,179.80"/>
        <lane id=":B1_5_1" index="1" speed="13.89" length="20.80" shape="185.40,176.60 164.60,176.60"/>
    </edge>
    <edge id=":B1_7" function="internal">
        <lane id=":B1_7_0" index="0" speed="9.26" length="6.96" shape="185.40,176.60 180.15,175.85 178.73,175.00"/>
    </edge>
    <edge id=":B1_17" function="internal">
        <lane id=":B1_17_0" index="0" speed="9.26" length="12.40" shape="178.73,175.00 176.40,173.60 174.15,169.85 173.40,164.60"/>
    </edge>
    <edge id=":B1_8" function="internal">
        <lane id=":B1_8_0" index="0" speed="6.51" length="9.03" shape="179.80,164.60 180.15,167.05 181.20,168.80 182.95,169.85 185.40,170.20"/>
    </edge>
    <edge id=":B1_9" function="internal">
        <lane id=":B1_9_0" index="0" speed="13.89" length="20.80" shape="179.80,164.60 179.80,185.40"/>
        <lane id=":B1_9_1" index="1" speed="13.89" length="20.80" shape="176.60,164.60 176.60,185.40"/>
    </edge>
    <edge id=":B1_11" function="internal">
        <lane id=":B1_11_0" index="0" speed="9.26" length="6.96" shape="176.60,164.60 175.85,169.85 175.00,171.27"/>
    </edge>
    <edge id=":B1_18" function="internal">
        <lane id=":B1_18_0" index="0" speed="9.26" length="12.40" shape="175.00,171.27 173.60,173.60 169.85,175.85 164.60,176.60"/>
    </edge>
    <edge id=":B1_12" function="internal">
        <lane id=":B1_12_0" index="0" speed="6.51" length="9.03" shape="164.60,170.20 167.05,169.85 168.80,168.80 169.85,167.05 170.20,164.60"/>
    </edge>
    <edge id=":B1_13" function="internal">
        <lane id=":B1_13_0" index="0" speed="13.89" length="20.80" shape="164.60,170.20 185.40,170.20"/>
        <lane id=":B1_13_1" index="1" speed="13.89" length="20.80" shape="164.60,173.40 185.40,173.40"/>
    </edge>
    <edge id=":B1_15" function="internal">
        <lane id=":B1_15_0" index="0" speed="9.26" length="6.96" shape="164.60,173.40 169.85,174.15 171.27,175.00"/>
    </edge>
    <edge id=":B1_19" function="internal">
        <lane id=":B1_19_0" index="0" speed="9.26" length="12.40" shape="171.27,175.00 173.60,176.40 175.85,180.15 176.60,185.40"/>
    </edge>
    <edge id=":B2_0" function="internal">
        <lane id=":B2_0_0" index="0" speed="6.51" length="9.03" shape="170.20,360.40 169.85,357.95 168.80,356.20 167.05,355.15 164.60,354.80"/>
    </edge>
    <edge id=":B2_1" function="internal">
        <lane id=":B2_1_0" index="0" speed="13.89" length="20.80" shape="170.20,360.40 170.20,339.60"/>
        <lane id=":B2_1_1" index="1" speed="13.89" length="20.80" shape="173.40,360.40 173.40,339.60"/>
    </edge>
    <edge id=":B2_3" function="internal">
        <lane id=":B2_3_0" index="0" speed="9.26" length="6.96" shape="173.40,360.40 174.15,355.15 175.00,353.73"/>
    </edge>
    <edge id=":B2_16" function="internal">
        <lane id=":B2_16_0" index="0" speed="9.26" length="12.40" shape="175.00,353.73 176.40,351.40 180.15,349.15 185.40,348.40"/>
    </edge>
    <edge id=":B2_4" function="internal">
        <lane id=":B2_4_0" index="0" speed="6.51" length="9.03" shape="185.40,354.80 182.95,355.15 181.20,356.20 180.15,357.95 179.80,360.40"/>
    </edge>
    <edge id=":B2_5" function="internal">
        <lane id=":B2_5_0" index="0" speed="13.89" length="20.80" shape="185.40,354.80 164.60,354.80"/>
        <lane id=":B2_5_1" index="1" speed="13.89" length="20.80" shape="185.40,351.60 164.60,351.60"/>
    </edge>
    <edge id=":B2_7" function="internal">
        <lane id=":B2_7_0" index="0" speed="9.26" length="6.96" shape="185.40,351.60 180.15,350.85 178.73,350.00"/>
    </edge>
    <edge id=":B2_17" function="internal">
        <lane id=":B2_17_0" index="0" speed="9.26" length="12.40" shape="178.73,350.00 176.40,348.60 174.15,344.85 173.40,339.60"/>
    </edge>
    <edge id=":B2_8" function="internal">
        <lane id=":B2_8_0" index="0" speed="6.51" length="9.03" shape="179.80,339.60 180.15,342.05 181.20,343.80 182.95,344.85 185.40,345.20"/>
    </edge>
    <edge id=":B2_9" function="internal">
        <lane id=":B2_9_0" index="0" speed="13.89" length="20.80" shape="179.80,339.60 179.80,360.40"/>
        <lane id=":B2_9_1" index="1" speed="13.89" length="20.80" shape="176.60,339.60 176.60,360.40"/>
    </edge>
    <edge id=":B2_11" function="internal">
        <lane id=":B2_11_0" index="0" speed="9.26" length="6.96" shape="176.60,339.60 175.85,344.85 175.00,346.27"/>
    </edge>
    <edge id=":B2_18" function="internal">
        <lane id=":B2_18_0" index="0" speed="9.26" length="12.40" shape="175.00,346.27 173.60,348.60 169.85,350.85 164.60,351.60"/>
    </edge>
    <edge id=":B2_12" function="internal">
        <lane id=":B2_12_0" index="0" speed="6.51" length="9.03" shape="164.60,345.20 167.05,344.85 168.80,343.80 169.85,342.05 170.20,339.60"/>
    </edge>
    <edge id=":B2_13" function="internal">
        <lane id=":B2_13_0" index="0" speed="13.89" length="20.80" shape="164.60,345.20 185.40,345.20"/>
        <lane id=":B2_13_1" index="1" speed="13.89" length="20.80" shape="164.60,348.40 185.40,348.40"/>
    </edge>
    <edge id=":B2_15" function="internal">
        <lane id=":B2_15_0" index="0" speed="9.26" length="6.96" shape="164.60,348.40 169.85,349.15 171.27,350.00"/>
    </edge>
    <edge id=":B2_19" function="internal">
        <lane id=":B2_19_0" index="0" speed="9.26" length="12.40" shape="171.27,350.00 173.60,351.40 175.85,355.15 176.60,360.40"/>
    </edge>
    <edge id=":B3_0" function="internal">
        <lane id=":B3_0_0" index="0" speed="6.51" length="9.03" shape="170.20,535.40 169.85,532.95 168.80,531.20 167.05,530.15 164.60,529.80"/>
    </edge>
    <edge id=":B3_1" function="internal">
        <lane id=":B3_1_0" index="0" speed="13.89" length="20.80" shape="170.20,535.40 170.20,514.60"/>
        <lane id=":B3_1_1" index="1" speed="13.89" length="20.80" shape="173.40,535.40 173.40,514.60"/>
    </edge>
    <edge id=":B3_3" function="internal">
        <lane id=":B3_3_0" index="0" speed="9.26" length="6.96" shape="173.40,535.40 174.15,530.15 175.00,528.73"/>
    </edge>
    <edge id=":B3_16" function="internal">
        <lane id=":B3_16_0" index="0" speed="9.26" length="12.40" shape="175.00,528.73 176.40,526.40 180.15,524.15 185.40,523.40"/>
    </edge>
    <edge id=":B3_4" function="internal">
        <lane id=":B3_4_0" index="0" speed="6.51" length="9.03" shape="185.40,529.80 182.95,530.15 181.20,531.20 180.15,532.95 179.80,535.40"/>
    </edge>
    <edge id=":B3_5" function="internal">
        <lane id=":B3_5_0" index="0" speed="13.89" length="20.80" shape="185.40,529.80 164.60,529.80"/>
        <lane id=":B3_5_1" index="1" speed="13.89" length="20.80" shape="185.40,526.60 164.60,526.60"/>
    </edge>
    <edge id=":B3_7" function="internal">
        <lane id=":B3_7_0" index="0" speed="9.26" length="6.96" shape="185.40,526.60 180.15,525.85 178.73,525.00"/>
    </edge>
    <edge id=":B3_17" function="internal">
        <lane id=":B3_17_0" index="0" speed="9.26" length="12.40" shape="178.73,525.00 176.40,523.60 174.15,519.85 173.40,514.60"/>
    </edge>
    <edge id=":B3_8" function="internal">
        <lane id=":B3_8_0" index="0" speed="6.51" length="9.03" shape="179.80,514.60 180.15,517.05 181.20,518.80 182.95,519.85 185.40,520.20"/>
    </edge>
    <edge id=":B3_9" function="internal">
        <lane id=":B3_9_0" index="0" speed="13.89" length="20.80" shape="179.80,514.60 179.80,535.40"/>
        <lane id=":B3_9_1" index="1" speed="13.89" length="20.80" shape="176.60,514.60 176.60,535.40"/>
    </edge>
    <edge id=":B3_11" function="internal">
        <lane id=":B3_11_0" index="0" speed="9.26" length="6.96" shape="176.60,514.60 175.85,519.85 175.00,521.27"/>
    </edge>
    <edge id=":B3_18" function="internal">
        <lane id=":B3_18_0" index="0" speed="9.26" length="12.40" shape="175.00,521.27 173.60,523.60 169.85,525.85 164.60,526.60"/>
    </edge>
    <edge id=":B3_12" function="internal">
        <lane id=":B3_12_0" index="0" speed="6.51" length="9.03" shape="164.60,520.20 167.05,519.85 168.80,518.80 169.85,517.05 170.20,514.60"/>
    </edge>
    <edge id=":B3_13" function="internal">
        <lane id=":B3_13_0" index="0" speed="13.89" length="20.80" shape="164.60,520.20 185.40,520.20"/>
        <lane id=":B3_13_1" index="1" speed="13.89" length="20.80" shape="164.60,523.40 185.40,523.40"/>
    </edge>
    <edge id=":B3_15" function="internal">
        <lane id=":B3_15_0" index="0" speed="9.26" length="6.96" shape="164.60,523.40 169.85,524.15 171.27,525.00"/>
    </edge>
    <edge id=":B3_19" function="internal">
        <lane id=":B3_19_0" index="0" speed="9.26" length="12.40" shape="171.27,525.00 173.60,526.40 175.85,530.15 176.60,535.40"/>
    </edge>
    <edge id=":B4_0" function="internal">
        <lane id=":B4_0_0" index="0" speed="13.89" length="20.80" shape="185.40,704.80 164.60,704.80"/>
        <lane id=":B4_0_1" index="1" speed="13.89" length="20.80" shape="185.40,701.60 164.60,701.60"/>
    </edge>
    <edge id=":B4_2" function="internal">
        <lane id=":B4_2_0" index="0" speed="9.26" length="6.96" shape="185.40,701.60 180.15,700.85 178.73,700.00"/>
    </edge>
    <edge id=":B4_9" function="internal">
        <lane id=":B4_9_0" index="0" speed="9.26" length="12.40" shape="178.73,700.00 176.40,698.60 174.15,694.85 173.40,689.60"/>
    </edge>
    <edge id=":B4_3" function="internal">
        <lane id=":B4_3_0" index="0" speed="6.51" length="9.03" shape="179.80,689.60 180.15,692.05 181.20,693.80 182.95,694.85 185.40,695.20"/>
    </edge>
    <edge id=":B4_4" function="internal">
        <lane id=":B4_4_0" index="0" speed="8.00" length="14.19" shape="176.60,689.60 177.15,693.45 178.80,696.20 181.55,697.85 185.40,698.40"/>
    </edge>
    <edge id=":B4_5" function="internal">
        <lane id=":B4_5_0" index="0" speed="9.26" length="19.35" shape="176.60,689.60 175.85,694.85 173.60,698.60 169.85,700.85 164.60,701.60"/>
    </edge>
    <edge id=":B4_6" function="internal">
        <lane id=":B4_6_0" index="0" speed="6.51" length="9.03" shape="164.60,695.20 167.05,694.85 168.80,693.80 169.85,692.05 170.20,689.60"/>
    </edge>
    <edge id=":B4_7" function="internal">
        <lane id=":B4_7_0" index="0" speed="13.89" length="20.80" shape="164.60,695.20 185.40,695.20"/>
        <lane id=":B4_7_1" index="1" speed="13.89" length="20.80" shape="164.60,698.40 185.40,698.40"/>
    </edge>
    <edge id=":C0_0" function="internal">
        <lane id=":C0_0_0" index="0" speed="6.51" length="9.03" shape="345.20,10.40 344.85,7.95 343.80,6.20 342.05,5.15 339.60,4.80"/>
    </edge>
    <edge id=":C0_1" function="internal">
        <lane id=":C0_1_0" index="0" speed="8.00" length="14.19" shape="348.40,10.40 347.85,6.55 346.20,3.80 343.45,2.15 339.60,1.60"/>
    </edge>
    <edge id=":C0_2" function="internal">
        <lane id=":C0_2_0" index="0" speed="9.26" length="19.35" shape="348.40,10.40 349.15,5.15 351.40,1.40 355.15,-0.85 360.40,-1.60"/>
    </edge>
    <edge id=":C0_3" function="internal">
        <lane id=":C0_3_0" index="0" speed="6.51" length="9.03" shape="360.40,4.80 357.95,5.15 356.20,6.20 355.15,7.95 354.80,10.40"/>
    </edge>
    <edge id=":C0_4" function="internal">
        <lane id=":C0_4_0" index="0" speed="13.89" length="20.80" shape="360.40,4.80 339.60,4.80"/>
        <lane id=":C0_4_1" index="1" speed="13.89" length="20.80" shape="360.40,1.60 339.60,1.60"/>
    </edge>
    <edge id=":C0_6" function="internal">
        <lane id=":C0_6_0" index="0" speed="13.89" length="20.80" shape="339.60,-4.80 360.40,-4.80"/>
        <lane id=":C0_6_1" index="1" speed="13.89" length="20.80" shape="339.60,-1.60 360.40,-1.60"/>
    </edge>
    <edge id=":C0_8" function="internal">
        <lane id=":C0_8_0" index="0" speed="9.26" length="6.96" shape="339.60,-1.60 344.85,-0.85 346.27,0.00"/>
    </edge>
    <edge id=":C0_9" function="internal">
        <lane id=":C0_9_0" index="0" speed="9.26" length="12.40" shape="346.27,0.00 348.60,1.40 350.85,5.15 351.60,10.40"/>
    </edge>
    <edge id=":C1_0" function="internal">
        <lane id=":C1_0_0" index="0" speed="6.51" length="9.03" shape="345.20,185.40 344.85,182.95 343.80,181.20 342.05,180.15 339.60,179.80"/>
    </edge>
    <edge id=":C1_1" function="internal">
        <lane id=":C1_1_0" index="0" speed="13.89" length="20.80" shape="345.20,185.40 345.20,164.60"/>
        <lane id=":C1_1_1" index="1" speed="13.89" length="20.80" shape="348.40,185.40 348.40,164.60"/>
    </edge>
    <edge id=":C1_3" function="internal">
        <lane id=":C1_3_0" index="0" speed="9.26" length="6.96" shape="348.40,185.40 349.15,180.15 350.00,178.73"/>
    </edge>
    <edge id=":C1_16" function="internal">
        <lane id=":C1_16_0" index="0" speed="9.26" length="12.40" shape="350.00,178.73 351.40,176.40 355.15,174.15 360.40,173.40"/>
    </edge>
    <edge id=":C1_4" function="internal">
        <lane id=":C1_4_0" index="0" speed="6.51" length="9.03" shape="360.40,179.80 357.95,180.15 356.20,181.20 355.15,182.95 354.80,185.40"/>
    </edge>
    <edge id=":C1_5" function="internal">
        <lane id=":C1_5_0" index="0" speed="13.89" length="20.80" shape="360.40,179.80 339.60,179.80"/>
        <lane id=":C1_5_1" index="1" speed="13.89" length="20.80" shape="360.40,176.60 339.60,176.60"/>
    </edge>
    <edge id=":C1_7" function="internal">
        <lane id=":C1_7_0" index="0" speed="9.26" length="6.96" shape="360.40,176.60 355.15,175.85 353.73,175.00"/>
    </edge>
    <edge id=":C1_17" function="internal">
        <lane id=":C1_17_0" index="0" speed="9.26" length="12.40" shape="353.73,175.00 351.40,173.60 349.15,169.85 348.40,164.60"/>
    </edge>
    <edge id=":C1_8" function="internal">
        <lane id=":C1_8_0" index="0" speed="6.51" length="9.03" shape="354.80,164.60 355.15,167.05 356.20,168.80 357.95,169.85 360.40,170.20"/>
    </edge>
    <edge id=":C1_9" function="internal">
        <lane id=":C1_9_0" index="0" speed="13.89" length="20.80" shape="354.80,164.60 354.80,185.40"/>
        <lane id=":C1_9_1" index="1" speed="13.89" length="20.80" shape="351.60,164.60 351.60,185.40"/>
    </edge>
    <edge id=":C1_11" function="internal">
        <lane id=":C1_11_0" index="0" speed="9.26" length="6.96" shape="351.60,164.60 350.85,169.85 350.00,171.27"/>
    </edge>
    <edge id=":C1_18" function="internal">
        <lane id=":C1_18_0" index="0" speed="9.26" length="12.40" shape="350.00,171.27 348.60,173.60 344.85,175.85 339.60,176.60"/>
    </edge>
    <edge id=":C1_12" function="internal">
        <lane id=":C1_12_0" index="0" speed="6.51" length="9.03" shape="339.60,170.20 342.05,169.85 343.80,168.80 344.85,167.05 345.20,164.60"/>
    </edge>
    <edge id=":C1_13" function="internal">
        <lane id=":C1_13_0" index="0" speed="13.89" length="20.80" shape="339.60,170.20 360.40,170.20"/>
        <lane id=":C1_13_1" index="1" speed="13.89" length="20.80" shape="339.60,173.40 360.40,173.40"/>
    </edge>
    <edge id=":C1_15" function="internal">
        <lane id=":C1_15_0" index="0" speed="9.26" length="6.96" shape="339.60,173.40 344.85,174.15 346.27,175.00"/>
    </edge>
    <edge id=":C1_19" function="internal">
        <lane id=":C1_19_0" index="0" speed="9.26" length="12.40" shape="346.27,175.00 348.60,176.40 350.85,180.15 351.60,185.40"/>
    </edge>
    <edge id=":C2_0" function="internal">
        <lane id=":C2_0_0" index="0" speed="6.51" length="9.03" shape="345.20,360.40 344.85,357.95 343.80,356.20 342.05,355.15 339.60,354.80"/>
    </edge>
    <edge id=":C2_1" function="internal">
        <lane id=":C2_1_0" index="0" speed="13.89" length="20.80" shape="345.20,360.40 345.20,339.60"/>
        <lane id=":C2_1_1" index="1" speed="13.89" length="20.80" shape="348.40,360.40 348.40,339.60"/>
    </edge>
    <edge id=":C2_3" function="internal">
        <lane id=":C2_3_0" index="0" speed="9.26" length="6.96" shape="348.40,360.40 349.15,355.15 350.00,353.73"/>
    </edge>
    <edge id=":C2_16" function="internal">
        <lane id=":C2_16_0" index="0" speed="9.26" length="12.40" shape="350.00,353.73 351.40,351.40 355.15,349.15 360.40,348.40"/>
    </edge>
    <edge id=":C2_4" function="internal">
        <lane id=":C2_4_0" index="0" speed="6.51" length="9.03" shape="360.40,354.80 357.95,355.15 356.20,356.20 355.15,357.95 354.80,360.40"/>
    </edge>
    <edge id=":C2_5" function="internal">
        <lane id=":C2_5_0" index="0" speed="13.89" length="20.80" shape="360.40,354.80 339.60,354.80"/>
        <lane id=":C2_5_1" index="1" speed="13.89" length="20.80" shape="360.40,351.60 339.60,351.60"/>
    </edge>
    <edge id=":C2_7" function="internal">
        <lane id=":C2_7_0" index="0" speed="9.26" length="6.96" shape="360.40,351.60 355.15,350.85 353.73,350.00"/>
    </edge>
    <edge id=":C2_17" function="internal">
        <lane id=":C2_17_0" index="0" speed="9.26" length="12.40" shape="353.73,350.00 351.40,348.60 349.15,344.85 348.40,339.60"/>
    </edge>
    <edge id=":C2_8" function="internal">
        <lane id=":C2_8_0" index="0" speed="6.51" length="9.03" shape="354.80,339.60 355.15,342.05 356.20,343.80 357.95,344.85 360.40,345.20"/>
    </edge>
    <edge id=":C2_9" function="internal">
        <lane id=":C2_9_0" index="0" speed="13.89" length="20.80" shape="354.80,339.60 354.80,360.40"/>
        <lane id=":C2_9_1" index="1" speed="13.89" length="20.80" shape="351.60,339.60 351.60,360.40"/>
    </edge>
    <edge id=":C2_11" function="internal">
        <lane id=":C2_11_0" index="0" speed="9.26" length="6.96" shape="351.60,339.60 350.85,344.85 350.00,346.27"/>
    </edge>
    <edge id=":C2_18" function="internal">
        <lane id=":C2_18_0" index="0" speed="9.26" length="12.40" shape="350.00,346.27 348.60,348.60 344.85,350.85 339.60,351.60"/>
    </edge>
    <edge id=":C2_12" function="internal">
        <lane id=":C2_12_0" index="0" speed="6.51" length="9.03" shape="339.60,345.20 342.05,344.85 343.80,343.80 344.85,342.05 345.20,339.60"/>
    </edge>
    <edge id=":C2_13" function="internal">
        <lane id=":C2_13_0" index="0" speed="13.89" length="20.80" shape="339.60,345.20 360.40,345.20"/>
        <lane id=":C2_13_1" index="1" speed="13.89" length="20.80" shape="339.60,348.40 360.40,348.40"/>
    </edge>
    <edge id=":C2_15" function="internal">
        <lane id=":C2_15_0" index="0" speed="9.26" length="6.96" shape="339.60,348.40 344.85,349.15 346.27,350.00"/>
    </edge>
    <edge id=":C2_19" function="internal">
        <lane id=":C2_19_0" index="0" speed="9.26" length="12.40" shape="346.27,350.00 348.60,351.40 350.85,355.15 351.60,360.40"/>
    </edge>
    <edge id=":C3_0" function="internal">
        <lane id=":C3_0_0" index="0" speed="6.51" length="9.03" shape="345.20,535.40 344.85,532.95 343.80,531.20 342.05,530.15 339.60,529.80"/>
    </edge>
    <edge id=":C3_1" function="internal">
        <lane id=":C3_1_0" index="0" speed="13.89" length="20.80" shape="345.20,535.40 345.20,514.60"/>
        <lane id=":C3_1_1" index="1" speed="13.89" length="20.80" shape="348.40,535.40 348.40,514.60"/>
    </edge>
    <edge id=":C3_3" function="internal">
        <lane id=":C3_3_0" index="0" speed="9.26" length="6.96" shape="348.40,535.40 349.15,530.15 350.00,528.73"/>
    </edge>
    <edge id=":C3_16" function="internal">
        <lane id=":C3_16_0" index="0" speed="9.26" length="12.40" shape="350.00,528.73 351.40,526.40 355.15,524.15 360.40,523.40"/>
    </edge>
    <edge id=":C3_4" function="internal">
        <lane id=":C3_4_0" index="0" speed="6.51" length="9.03" shape="360.40,529.80 357.95,530.15 356.20,531.20 355.15,532.95 354.80,535.40"/>
    </edge>
    <edge id=":C3_5" function="internal">
        <lane id=":C3_5_0" index="0" speed="13.89" length="20.80" shape="360.40,529.80 339.60,529.80"/>
        <lane id=":C3_5_1" index="1" speed="13.89" length="20.80" shape="360.40,526.60 339.60,526.60"/>
    </edge>
    <edge id=":C3_7" function="internal">