<?xml version="1.0" encoding="UTF-8"?>

<!-- generated on 08/25/21 14:55:22 by Eclipse SUMO netgenerate Version 1.8.0
<configuration xmlns:xsi="http://www.w3.org/2001/XMLSchema-instance" xsi:noNamespaceSchemaLocation="http://sumo.dlr.de/xsd/netgenerateConfiguration.xsd">

    <random_network>
        <rand value="true"/>
        <rand.iterations value="200"/>
        <rand.grid value="true"/>
    </random_network>

    <output>
        <output-file value="dummy.net.xml"/>
    </output>

</configuration>
-->

<net version="1.6" junctionCornerDetail="5" limitTurnSpeed="5.50" xmlns:xsi="http://www.w3.org/2001/XMLSchema-instance" xsi:noNamespaceSchemaLocation="http://sumo.dlr.de/xsd/net_file.xsd">

    <location netOffset="1600.00,1000.00" convBoundary="0.00,0.00,2900.00,2900.00" origBoundary="-1600.00,-1000.00,1300.00,1900.00" projParameter="!"/>

    <edge id=":1_0" function="internal">
        <lane id=":1_0_0" index="0" speed="6.51" length="9.03" shape="1598.40,1007.20 1598.05,1004.75 1597.00,1003.00 1595.25,1001.95 1592.80,1001.60"/>
    </edge>
    <edge id=":1_1" function="internal">
        <lane id=":1_1_0" index="0" speed="13.89" length="14.40" shape="1598.40,1007.20 1598.40,992.80"/>
    </edge>
    <edge id=":1_2" function="internal">
        <lane id=":1_2_0" index="0" speed="8.00" length="5.93" shape="1598.40,1007.20 1598.95,1003.35 1600.00,1001.60"/>
    </edge>
    <edge id=":1_3" function="internal">
        <lane id=":1_3_0" index="0" speed="3.65" length="2.34" shape="1598.40,1007.20 1599.20,1006.00 1600.00,1005.60"/>
    </edge>
    <edge id=":1_16" function="internal">
        <lane id=":1_16_0" index="0" speed="8.00" length="8.26" shape="1600.00,1001.60 1600.60,1000.60 1603.35,998.95 1607.20,998.40"/>
    </edge>
    <edge id=":1_17" function="internal">
        <lane id=":1_17_0" index="0" speed="3.65" length="2.34" shape="1600.00,1005.60 1600.80,1006.00 1601.60,1007.20"/>
    </edge>
    <edge id=":1_4" function="internal">
        <lane id=":1_4_0" index="0" speed="6.51" length="9.03" shape="1607.20,1001.60 1604.75,1001.95 1603.00,1003.00 1601.95,1004.75 1601.60,1007.20"/>
    </edge>
    <edge id=":1_5" function="internal">
        <lane id=":1_5_0" index="0" speed="13.89" length="14.40" shape="1607.20,1001.60 1592.80,1001.60"/>
    </edge>
    <edge id=":1_6" function="internal">
        <lane id=":1_6_0" index="0" speed="8.00" length="14.19" shape="1607.20,1001.60 1603.35,1001.05 1600.60,999.40 1598.95,996.65 1598.40,992.80"/>
    </edge>
    <edge id=":1_7" function="internal">
        <lane id=":1_7_0" index="0" speed="3.65" length="4.67" shape="1607.20,1001.60 1606.00,1000.80 1605.60,1000.00 1606.00,999.20 1607.20,998.40"/>
    </edge>
    <edge id=":1_8" function="internal">
        <lane id=":1_8_0" index="0" speed="6.51" length="9.03" shape="1601.60,992.80 1601.95,995.25 1603.00,997.00 1604.75,998.05 1607.20,998.40"/>
    </edge>
    <edge id=":1_9" function="internal">
        <lane id=":1_9_0" index="0" speed="13.89" length="14.40" shape="1601.60,992.80 1601.60,1007.20"/>
    </edge>
    <edge id=":1_10" function="internal">
        <lane id=":1_10_0" index="0" speed="8.00" length="5.93" shape="1601.60,992.80 1601.05,996.65 1600.00,998.40"/>
    </edge>
    <edge id=":1_11" function="internal">
        <lane id=":1_11_0" index="0" speed="3.65" length="2.34" shape="1601.60,992.80 1600.80,994.00 1600.00,994.40"/>
    </edge>
    <edge id=":1_18" function="internal">
        <lane id=":1_18_0" index="0" speed="8.00" length="8.26" shape="1600.00,998.40 1599.40,999.40 1596.65,1001.05 1592.80,1001.60"/>
    </edge>
    <edge id=":1_19" function="internal">
        <lane id=":1_19_0" index="0" speed="3.65" length="2.34" shape="1600.00,994.40 1599.20,994.00 1598.40,992.80"/>
    </edge>
    <edge id=":1_12" function="internal">
        <lane id=":1_12_0" index="0" speed="6.51" length="9.03" shape="1592.80,998.40 1595.25,998.05 1597.00,997.00 1598.05,995.25 1598.40,992.80"/>
    </edge>
    <edge id=":1_13" function="internal">
        <lane id=":1_13_0" index="0" speed="13.89" length="14.40" shape="1592.80,998.40 1607.20,998.40"/>
    </edge>
    <edge id=":1_14" function="internal">
        <lane id=":1_14_0" index="0" speed="8.00" length="14.19" shape="1592.80,998.40 1596.65,998.95 1599.40,1000.60 1601.05,1003.35 1601.60,1007.20"/>
    </edge>
    <edge id=":1_15" function="internal">
        <lane id=":1_15_0" index="0" speed="3.65" length="4.67" shape="1592.80,998.40 1594.00,999.20 1594.40,1000.00 1594.00,1000.80 1592.80,1001.60"/>
    </edge>
    <edge id=":10_0" function="internal">
        <lane id=":10_0_0" index="0" speed="6.51" length="9.03" shape="1498.40,1007.20 1498.05,1004.75 1497.00,1003.00 1495.25,1001.95 1492.80,1001.60"/>
    </edge>
    <edge id=":10_1" function="internal">
        <lane id=":10_1_0" index="0" speed="8.00" length="14.19" shape="1498.40,1007.20 1498.95,1003.35 1500.60,1000.60 1503.35,998.95 1507.20,998.40"/>
    </edge>
    <edge id=":10_2" function="internal">
        <lane id=":10_2_0" index="0" speed="3.65" length="4.67" shape="1498.40,1007.20 1499.20,1006.00 1500.00,1005.60 1500.80,1006.00 1501.60,1007.20"/>
    </edge>
    <edge id=":10_3" function="internal">
        <lane id=":10_3_0" index="0" speed="6.51" length="9.03" shape="1507.20,1001.60 1504.75,1001.95 1503.00,1003.00 1501.95,1004.75 1501.60,1007.20"/>
    </edge>
    <edge id=":10_4" function="internal">
        <lane id=":10_4_0" index="0" speed="13.89" length="14.40" shape="1507.20,1001.60 1492.80,1001.60"/>
    </edge>
    <edge id=":10_5" function="internal">
        <lane id=":10_5_0" index="0" speed="3.65" length="2.34" shape="1507.20,1001.60 1506.00,1000.80 1505.60,1000.00"/>
    </edge>
    <edge id=":10_9" function="internal">
        <lane id=":10_9_0" index="0" speed="3.65" length="2.34" shape="1505.60,1000.00 1506.00,999.20 1507.20,998.40"/>
    </edge>
    <edge id=":10_6" function="internal">
        <lane id=":10_6_0" index="0" speed="13.89" length="14.40" shape="1492.80,998.40 1507.20,998.40"/>
    </edge>
    <edge id=":10_7" function="internal">
        <lane id=":10_7_0" index="0" speed="8.00" length="5.93" shape="1492.80,998.40 1496.65,998.95 1498.40,1000.00"/>
    </edge>
    <edge id=":10_8" function="internal">
        <lane id=":10_8_0" index="0" speed="3.65" length="2.34" shape="1492.80,998.40 1494.00,999.20 1494.40,1000.00"/>
    </edge>
    <edge id=":10_10" function="internal">
        <lane id=":10_10_0" index="0" speed="8.00" length="8.26" shape="1498.40,1000.00 1499.40,1000.60 1501.05,1003.35 1501.60,1007.20"/>
    </edge>
    <edge id=":10_11" function="internal">
        <lane id=":10_11_0" index="0" speed="3.65" length="2.34" shape="1494.40,1000.00 1494.00,1000.80 1492.80,1001.60"/>
    </edge>
    <edge id=":1001_0" function="internal">
        <lane id=":1001_0_0" index="0" speed="8.54" length="16.33" shape="807.16,809.42 803.58,806.74 800.00,805.84 796.42,806.74 792.84,809.42"/>
    </edge>
    <edge id=":1001_1" function="internal">
        <lane id=":1001_1_0" index="0" speed="13.89" length="20.98" shape="807.16,809.42 803.05,806.00 798.53,803.56 793.60,802.09 788.27,801.60"/>
    </edge>
    <edge id=":1001_2" function="internal">
        <lane id=":1001_2_0" index="0" speed="7.42" length="19.31" shape="807.16,809.42 803.31,804.60 802.79,801.16 805.59,799.09 811.73,798.40"/>
    </edge>
    <edge id=":1001_3" function="internal">
        <lane id=":1001_3_0" index="0" speed="3.65" length="4.67" shape="807.16,809.42 806.88,808.01 807.16,807.16 808.01,806.88 809.42,807.16"/>
    </edge>
    <edge id=":1001_4" function="internal">
        <lane id=":1001_4_0" index="0" speed="5.47" length="9.74" shape="811.73,801.60 808.63,801.95 807.22,802.99 807.48,804.73 809.42,807.16"/>
    </edge>
    <edge id=":1001_5" function="internal">
        <lane id=":1001_5_0" index="0" speed="13.89" length="20.72" shape="811.73,801.60 807.16,802.33 801.73,804.19 796.58,806.71 792.84,809.42"/>
    </edge>
    <edge id=":1001_6" function="internal">
        <lane id=":1001_6_0" index="0" speed="13.89" length="23.45" shape="811.73,801.60 788.27,801.60"/>
    </edge>
    <edge id=":1001_7" function="internal">
        <lane id=":1001_7_0" index="0" speed="3.65" length="2.34" shape="811.73,801.60 810.53,800.80 810.13,800.00"/>
    </edge>
    <edge id=":1001_16" function="internal">
        <lane id=":1001_16_0" index="0" speed="3.65" length="2.34" shape="810.13,800.00 810.53,799.20 811.73,798.40"/>
    </edge>
    <edge id=":1001_8" function="internal">
        <lane id=":1001_8_0" index="0" speed="13.89" length="23.45" shape="788.27,798.40 811.73,798.40"/>
    </edge>
    <edge id=":1001_9" function="internal">
        <lane id=":1001_9_0" index="0" speed="13.89" length="9.68" shape="788.27,798.40 794.24,798.95 797.78,800.00"/>
    </edge>
    <edge id=":1001_10" function="internal">
        <lane id=":1001_10_0" index="0" speed="7.42" length="7.71" shape="788.27,798.40 794.41,799.09 795.64,800.00"/>
    </edge>
    <edge id=":1001_11" function="internal">
        <lane id=":1001_11_0" index="0" speed="3.65" length="2.34" shape="788.27,798.40 789.47,799.20 789.87,800.00"/>
    </edge>
    <edge id=":1001_17" function="internal">
        <lane id=":1001_17_0" index="0" speed="13.89" length="13.81" shape="797.78,800.00 799.76,800.59 804.82,803.33 809.42,807.16"/>
    </edge>
    <edge id=":1001_18" function="internal">
        <lane id=":1001_18_0" index="0" speed="7.42" length="11.60" shape="795.64,800.00 797.21,801.16 796.69,804.60 792.84,809.42"/>
    </edge>
    <edge id=":1001_19" function="internal">
        <lane id=":1001_19_0" index="0" speed="3.65" length="2.34" shape="789.87,800.00 789.47,800.80 788.27,801.60"/>
    </edge>
    <edge id=":1001_12" function="internal">
        <lane id=":1001_12_0" index="0" speed="5.47" length="9.74" shape="790.58,807.16 792.52,804.73 792.78,802.99 791.37,801.95 788.27,801.60"/>
    </edge>
    <edge id=":1001_13" function="internal">
        <lane id=":1001_13_0" index="0" speed="13.89" length="23.14" shape="790.58,807.16 794.67,804.30 800.60,801.45 806.81,799.27 811.73,798.40"/>
    </edge>
    <edge id=":1001_14" function="internal">
        <lane id=":1001_14_0" index="0" speed="9.73" length="21.49" shape="790.58,807.16 795.29,803.63 800.00,802.45 804.71,803.63 809.42,807.16"/>
    </edge>
    <edge id=":1001_15" function="internal">
        <lane id=":1001_15_0" index="0" speed="3.65" length="4.67" shape="790.58,807.16 791.99,806.88 792.84,807.16 793.12,808.01 792.84,809.42"/>
    </edge>
    <edge id=":1003_0" function="internal">
        <lane id=":1003_0_0" index="0" speed="11.58" length="19.95" shape="998.40,711.73 998.93,705.90 1000.51,701.14 1003.14,697.43 1006.83,694.79"/>
    </edge>
    <edge id=":1003_1" function="internal">
        <lane id=":1003_1_0" index="0" speed="7.42" length="10.09" shape="998.40,711.73 999.09,705.59 1001.16,702.79 1001.58,702.85"/>
    </edge>
    <edge id=":1003_2" function="internal">
        <lane id=":1003_2_0" index="0" speed="3.65" length="2.48" shape="998.40,711.73 999.20,710.53 1000.00,710.13 1000.12,710.19"/>
    </edge>
    <edge id=":1003_9" function="internal">
        <lane id=":1003_9_0" index="0" speed="7.42" length="9.22" shape="1001.58,702.85 1004.60,703.31 1009.42,707.16"/>
    </edge>
    <edge id=":1003_10" function="internal">
        <lane id=":1003_10_0" index="0" speed="3.65" length="2.20" shape="1000.12,710.19 1000.80,710.53 1001.60,711.73"/>
    </edge>
    <edge id=":1003_3" function="internal">
        <lane id=":1003_3_0" index="0" speed="5.47" length="9.74" shape="1007.16,709.42 1004.73,707.48 1002.99,707.22 1001.95,708.63 1001.60,711.73"/>
    </edge>
    <edge id=":1003_4" function="internal">
        <lane id=":1003_4_0" index="0" speed="8.09" length="18.09" shape="1007.16,709.42 1003.44,704.81 1002.15,700.84 1003.28,697.50 1006.83,694.79"/>
    </edge>
    <edge id=":1003_5" function="internal">
        <lane id=":1003_5_0" index="0" speed="3.65" length="4.67" shape="1007.16,709.42 1006.88,708.01 1007.16,707.16 1008.01,706.88 1009.42,707.16"/>
    </edge>
    <edge id=":1003_6" function="internal">
        <lane id=":1003_6_0" index="0" speed="6.61" length="11.66" shape="1008.26,697.66 1006.25,699.29 1005.77,701.42 1006.83,704.05 1009.42,707.16"/>
    </edge>
    <edge id=":1003_7" function="internal">
        <lane id=":1003_7_0" index="0" speed="10.54" length="16.40" shape="1008.26,697.66 1005.35,699.79 1003.27,702.84 1002.02,706.82 1001.60,711.73"/>
    </edge>
    <edge id=":1003_8" function="internal">
        <lane id=":1003_8_0" index="0" speed="3.65" length="2.05" shape="1008.26,697.66 1006.83,697.48 1006.34,697.11"/>
    </edge>
    <edge id=":1003_11" function="internal">
        <lane id=":1003_11_0" index="0" speed="3.65" length="2.62" shape="1006.34,697.11 1006.12,696.94 1006.12,696.05 1006.83,694.79"/>
    </edge>
    <edge id=":1024_0" function="internal">
        <lane id=":1024_0_0" index="0" speed="6.51" length="9.03" shape="898.40,1307.20 898.05,1304.75 897.00,1303.00 895.25,1301.95 892.80,1301.60"/>
    </edge>
    <edge id=":1024_1" function="internal">
        <lane id=":1024_1_0" index="0" speed="13.89" length="14.40" shape="898.40,1307.20 898.40,1292.80"/>
    </edge>
    <edge id=":1024_2" function="internal">
        <lane id=":1024_2_0" index="0" speed="8.00" length="5.93" shape="898.40,1307.20 898.95,1303.35 900.00,1301.60"/>
    </edge>
    <edge id=":1024_3" function="internal">
        <lane id=":1024_3_0" index="0" speed="3.65" length="2.34" shape="898.40,1307.20 899.20,1306.00 900.00,1305.60"/>
    </edge>
    <edge id=":1024_16" function="internal">
        <lane id=":1024_16_0" index="0" speed="8.00" length="8.26" shape="900.00,1301.60 900.60,1300.60 903.35,1298.95 907.20,1298.40"/>
    </edge>
    <edge id=":1024_17" function="internal">
        <lane id=":1024_17_0" index="0" speed="3.65" length="2.34" shape="900.00,1305.60 900.80,1306.00 901.60,1307.20"/>
    </edge>
    <edge id=":1024_4" function="internal">
        <lane id=":1024_4_0" index="0" speed="6.51" length="9.03" shape="907.20,1301.60 904.75,1301.95 903.00,1303.00 901.95,1304.75 901.60,1307.20"/>
    </edge>
    <edge id=":1024_5" function="internal">
        <lane id=":1024_5_0" index="0" speed="13.89" length="14.40" shape="907.20,1301.60 892.80,1301.60"/>
    </edge>
    <edge id=":1024_6" function="internal">
        <lane id=":1024_6_0" index="0" speed="8.00" length="14.19" shape="907.20,1301.60 903.35,1301.05 900.60,1299.40 898.95,1296.65 898.40,1292.80"/>
    </edge>
    <edge id=":1024_7" function="internal">
        <lane id=":1024_7_0" index="0" speed="3.65" length="4.67" shape="907.20,1301.60 906.00,1300.80 905.60,1300.00 906.00,1299.20 907.20,1298.40"/>
    </edge>
    <edge id=":1024_8" function="internal">
        <lane id=":1024_8_0" index="0" speed="6.51" length="9.03" shape="901.60,1292.80 901.95,1295.25 903.00,1297.00 904.75,1298.05 907.20,1298.40"/>
    </edge>
    <edge id=":1024_9" function="internal">
        <lane id=":1024_9_0" index="0" speed="13.89" length="14.40" shape="901.60,1292.80 901.60,1307.20"/>
    </edge>
    <edge id=":1024_10" function="internal">
        <lane id=":1024_10_0" index="0" speed="8.00" length="5.93" shape="901.60,1292.80 901.05,1296.65 900.00,1298.40"/>
    </edge>
    <edge id=":1024_11" function="internal">
        <lane id=":1024_11_0" index="0" speed="3.65" length="2.34" shape="901.60,1292.80 900.80,1294.00 900.00,1294.40"/>
    </edge>
    <edge id=":1024_18" function="internal">
        <lane id=":1024_18_0" index="0" speed="8.00" length="8.26" shape="900.00,1298.40 899.40,1299.40 896.65,1301.05 892.80,1301.60"/>
    </edge>
    <edge id=":1024_19" function="internal">
        <lane id=":1024_19_0" index="0" speed="3.65" length="2.34" shape="900.00,1294.40 899.20,1294.00 898.40,1292.80"/>
    </edge>
    <edge id=":1024_12" function="internal">
        <lane id=":1024_12_0" index="0" speed="6.51" length="9.03" shape="892.80,1298.40 895.25,1298.05 897.00,1297.00 898.05,1295.25 898.40,1292.80"/>
    </edge>
    <edge id=":1024_13" function="internal">
        <lane id=":1024_13_0" index="0" speed="13.89" length="14.40" shape="892.80,1298.40 907.20,1298.40"/>
    </edge>
    <edge id=":1024_14" function="internal">
        <lane id=":1024_14_0" index="0" speed="8.00" length="14.19" shape="892.80,1298.40 896.65,1298.95 899.40,1300.60 901.05,1303.35 901.60,1307.20"/>
    </edge>
    <edge id=":1024_15" function="internal">
        <lane id=":1024_15_0" index="0" speed="3.65" length="4.67" shape="892.80,1298.40 894.00,1299.20 894.40,1300.00 894.00,1300.80 892.80,1301.60"/>
    </edge>
    <edge id=":1033_0" function="internal">
        <lane id=":1033_0_0" index="0" speed="13.89" length="18.93" shape="1211.73,801.60 1192.80,801.60"/>
    </edge>
    <edge id=":1033_1" function="internal">
        <lane id=":1033_1_0" index="0" speed="9.73" length="7.38" shape="1211.73,801.60 1205.90,800.77 1204.62,800.00"/>
    </edge>
    <edge id=":1033_2" function="internal">
        <lane id=":1033_2_0" index="0" speed="7.42" length="7.71" shape="1211.73,801.60 1205.59,800.91 1204.36,800.00"/>
    </edge>
    <edge id=":1033_3" function="internal">
        <lane id=":1033_3_0" index="0" speed="3.65" length="2.34" shape="1211.73,801.60 1210.53,800.80 1210.13,800.00"/>
    </edge>
    <edge id=":1033_16" function="internal">
        <lane id=":1033_16_0" index="0" speed="9.73" length="14.11" shape="1204.62,800.00 1201.73,798.27 1199.23,794.10 1198.40,788.27"/>
    </edge>
    <edge id=":1033_17" function="internal">
        <lane id=":1033_17_0" index="0" speed="7.42" length="11.60" shape="1204.36,800.00 1202.79,798.84 1203.31,795.40 1207.16,790.58"/>
    </edge>
    <edge id=":1033_18" function="internal">
        <lane id=":1033_18_0" index="0" speed="3.65" length="2.34" shape="1210.13,800.00 1210.53,799.20 1211.73,798.40"/>
    </edge>
    <edge id=":1033_4" function="internal">
        <lane id=":1033_4_0" index="0" speed="5.47" length="9.74" shape="1209.42,792.84 1207.48,795.27 1207.22,797.01 1208.63,798.05 1211.73,798.40"/>
    </edge>
    <edge id=":1033_5" function="internal">
        <lane id=":1033_5_0" index="0" speed="13.89" length="19.24" shape="1209.42,792.84 1205.10,796.67 1200.89,799.41 1196.79,801.05 1192.80,801.60"/>
    </edge>
    <edge id=":1033_6" function="internal">
        <lane id=":1033_6_0" index="0" speed="7.42" length="19.31" shape="1209.42,792.84 1204.60,796.69 1201.16,797.21 1199.09,794.41 1198.40,788.27"/>
    </edge>
    <edge id=":1033_7" function="internal">
        <lane id=":1033_7_0" index="0" speed="3.65" length="4.67" shape="1209.42,792.84 1208.01,793.12 1207.16,792.84 1206.88,791.99 1207.16,790.58"/>
    </edge>
    <edge id=":1033_8" function="internal">
        <lane id=":1033_8_0" index="0" speed="5.47" length="9.74" shape="1201.60,788.27 1201.95,791.37 1202.99,792.78 1204.73,792.52 1207.16,790.58"/>
    </edge>
    <edge id=":1033_9" function="internal">
        <lane id=":1033_9_0" index="0" speed="8.54" length="16.33" shape="1201.60,788.27 1202.23,792.70 1204.13,795.87 1207.30,797.77 1211.73,798.40"/>
    </edge>
    <edge id=":1033_10" function="internal">
        <lane id=":1033_10_0" index="0" speed="8.94" length="17.99" shape="1201.60,788.27 1201.05,794.10 1199.40,798.27 1196.65,800.77 1192.80,801.60"/>
    </edge>
    <edge id=":1033_11" function="internal">
        <lane id=":1033_11_0" index="0" speed="3.65" length="4.67" shape="1201.60,788.27 1200.80,789.47 1200.00,789.87 1199.20,789.47 1198.40,788.27"/>
    </edge>
    <edge id=":1033_12" function="internal">
        <lane id=":1033_12_0" index="0" speed="7.65" length="12.89" shape="1192.80,798.40 1195.25,797.77 1197.00,795.87 1198.05,792.70 1198.40,788.27"/>
    </edge>
    <edge id=":1033_13" function="internal">
        <lane id=":1033_13_0" index="0" speed="13.42" length="16.74" shape="1192.80,798.40 1196.15,797.91 1199.66,796.44 1203.33,794.00 1207.16,790.58"/>
    </edge>
    <edge id=":1033_14" function="internal">
        <lane id=":1033_14_0" index="0" speed="13.89" length="18.93" shape="1192.80,798.40 1211.73,798.40"/>
    </edge>
    <edge id=":1033_15" function="internal">
        <lane id=":1033_15_0" index="0" speed="3.65" length="2.34" shape="1192.80,798.40 1194.00,799.20 1194.40,800.00"/>
    </edge>
    <edge id=":1033_19" function="internal">
        <lane id=":1033_19_0" index="0" speed="3.65" length="2.34" shape="1194.40,800.00 1194.00,800.80 1192.80,801.60"/>
    </edge>
    <edge id=":108_0" function="internal">
        <lane id=":108_0_0" index="0" speed="7.65" length="12.89" shape="1498.40,1111.73 1498.05,1107.30 1497.00,1104.13 1495.25,1102.23 1492.80,1101.60"/>
    </edge>
    <edge id=":108_1" function="internal">
        <lane id=":108_1_0" index="0" speed="13.89" length="18.93" shape="1498.40,1111.73 1498.40,1092.80"/>
    </edge>
    <edge id=":108_2" function="internal">
        <lane id=":108_2_0" index="0" speed="7.42" length="7.71" shape="1498.40,1111.73 1499.09,1105.59 1500.00,1104.36"/>
    </edge>
    <edge id=":108_3" function="internal">
        <lane id=":108_3_0" index="0" speed="3.65" length="2.34" shape="1498.40,1111.73 1499.20,1110.53 1500.00,1110.13"/>
    </edge>
    <edge id=":108_16" function="internal">
        <lane id=":108_16_0" index="0" speed="7.42" length="11.60" shape="1500.00,1104.36 1501.16,1102.79 1504.60,1103.31 1509.42,1107.16"/>
    </edge>
    <edge id=":108_17" function="internal">
        <lane id=":108_17_0" index="0" speed="3.65" length="2.34" shape="1500.00,1110.13 1500.80,1110.53 1501.60,1111.73"/>
    </edge>
    <edge id=":108_4" function="internal">
        <lane id=":108_4_0" index="0" speed="5.47" length="9.74" shape="1507.16,1109.42 1504.73,1107.48 1502.99,1107.22 1501.95,1108.63 1501.60,1111.73"/>
    </edge>
    <edge id=":108_5" function="internal">
        <lane id=":108_5_0" index="0" speed="13.42" length="16.74" shape="1507.16,1109.42 1503.33,1106.00 1499.66,1103.56 1496.15,1102.09 1492.80,1101.60"/>
    </edge>
    <edge id=":108_6" function="internal">
        <lane id=":108_6_0" index="0" speed="13.89" length="19.06" shape="1507.16,1109.42 1503.94,1105.53 1501.14,1100.94 1499.15,1096.44 1498.40,1092.80"/>
    </edge>
    <edge id=":108_7" function="internal">
        <lane id=":108_7_0" index="0" speed="3.65" length="4.67" shape="1507.16,1109.42 1506.88,1108.01 1507.16,1107.16 1508.01,1106.88 1509.42,1107.16"/>
    </edge>
    <edge id=":108_8" function="internal">
        <lane id=":108_8_0" index="0" speed="13.42" length="16.74" shape="1501.60,1092.80 1502.09,1096.15 1503.56,1099.66 1506.00,1103.33 1509.42,1107.16"/>
    </edge>
    <edge id=":108_9" function="internal">
        <lane id=":108_9_0" index="0" speed="13.89" length="18.93" shape="1501.60,1092.80 1501.60,1111.73"/>
    </edge>
    <edge id=":108_10" function="internal">
        <lane id=":108_10_0" index="0" speed="8.00" length="5.93" shape="1501.60,1092.80 1501.05,1096.65 1500.00,1098.40"/>
    </edge>
    <edge id=":108_11" function="internal">
        <lane id=":108_11_0" index="0" speed="3.65" length="2.34" shape="1501.60,1092.80 1500.80,1094.00 1500.00,1094.40"/>
    </edge>
    <edge id=":108_18" function="internal">
        <lane id=":108_18_0" index="0" speed="8.00" length="8.26" shape="1500.00,1098.40 1499.40,1099.40 1496.65,1101.05 1492.80,1101.60"/>
    </edge>
    <edge id=":108_19" function="internal">
        <lane id=":108_19_0" index="0" speed="3.65" length="2.34" shape="1500.00,1094.40 1499.20,1094.00 1498.40,1092.80"/>
    </edge>
    <edge id=":108_12" function="internal">
        <lane id=":108_12_0" index="0" speed="6.51" length="9.03" shape="1492.80,1098.40 1495.25,1098.05 1497.00,1097.00 1498.05,1095.25 1498.40,1092.80"/>
    </edge>
    <edge id=":108_13" function="internal">
        <lane id=":108_13_0" index="0" speed="13.89" length="19.24" shape="1492.80,1098.40 1496.79,1098.95 1500.89,1100.59 1505.10,1103.33 1509.42,1107.16"/>
    </edge>
    <edge id=":108_14" function="internal">
        <lane id=":108_14_0" index="0" speed="8.71" length="17.02" shape="1492.80,1098.40 1496.03,1099.73 1498.85,1103.07 1500.84,1107.40 1501.60,1111.73"/>
    </edge>
    <edge id=":108_15" function="internal">
        <lane id=":108_15_0" index="0" speed="3.65" length="4.67" shape="1492.80,1098.40 1494.00,1099.20 1494.40,1100.00 1494.00,1100.80 1492.80,1101.60"/>
    </edge>
    <edge id=":1149_0" function="internal">
        <lane id=":1149_0_0" index="0" speed="7.65" length="12.89" shape="898.40,907.20 897.77,904.75 895.87,903.00 892.70,901.95 888.27,901.60"/>
    </edge>
    <edge id=":1149_1" function="internal">
        <lane id=":1149_1_0" index="0" speed="13.42" length="16.74" shape="898.40,907.20 897.91,903.85 896.44,900.34 894.00,896.67 890.58,892.84"/>
    </edge>
    <edge id=":1149_2" function="internal">
        <lane id=":1149_2_0" index="0" speed="3.65" length="2.09" shape="898.40,907.20 899.20,906.00 899.78,905.71"/>
    </edge>
    <edge id=":1149_9" function="internal">
        <lane id=":1149_9_0" index="0" speed="3.65" length="2.58" shape="899.78,905.71 900.00,905.60 900.80,906.00 901.60,907.20"/>
    </edge>
    <edge id=":1149_3" function="internal">
        <lane id=":1149_3_0" index="0" speed="13.89" length="19.24" shape="892.84,890.58 896.67,894.90 899.41,899.11 901.05,903.21 901.60,907.20"/>
    </edge>
    <edge id=":1149_4" function="internal">
        <lane id=":1149_4_0" index="0" speed="7.42" length="9.34" shape="892.84,890.58 896.69,895.40 897.16,898.53"/>
    </edge>
    <edge id=":1149_5" function="internal">
        <lane id=":1149_5_0" index="0" speed="3.65" length="2.34" shape="892.84,890.58 893.12,891.99 892.84,892.84"/>
    </edge>
    <edge id=":1149_10" function="internal">
        <lane id=":1149_10_0" index="0" speed="7.42" length="9.97" shape="897.16,898.53 897.21,898.84 894.41,900.91 888.27,901.60"/>
    </edge>
    <edge id=":1149_11" function="internal">
        <lane id=":1149_11_0" index="0" speed="3.65" length="2.34" shape="892.84,892.84 891.99,893.12 890.58,892.84"/>
    </edge>
    <edge id=":1149_6" function="internal">
        <lane id=":1149_6_0" index="0" speed="5.47" length="9.74" shape="888.27,898.40 891.37,898.05 892.78,897.01 892.52,895.27 890.58,892.84"/>
    </edge>
    <edge id=":1149_7" function="internal">
        <lane id=":1149_7_0" index="0" speed="8.94" length="17.99" shape="888.27,898.40 894.10,898.95 898.27,900.60 900.77,903.35 901.60,907.20"/>
    </edge>
    <edge id=":1149_8" function="internal">
        <lane id=":1149_8_0" index="0" speed="3.65" length="4.67" shape="888.27,898.40 889.47,899.20 889.87,900.00 889.47,900.80 888.27,901.60"/>
    </edge>
    <edge id=":1153_0" function="internal">
        <lane id=":1153_0_0" index="0" speed="13.89" length="18.93" shape="798.40,1311.73 798.40,1292.80"/>
    </edge>
    <edge id=":1153_1" function="internal">
        <lane id=":1153_1_0" index="0" speed="9.73" length="7.38" shape="798.40,1311.73 799.23,1305.90 800.00,1304.62"/>
    </edge>
    <edge id=":1153_2" function="internal">
        <lane id=":1153_2_0" index="0" speed="7.42" length="7.71" shape="798.40,1311.73 799.09,1305.59 800.00,1304.36"/>
    </edge>
    <edge id=":1153_3" function="internal">
        <lane id=":1153_3_0" index="0" speed="3.65" length="2.34" shape="798.40,1311.73 799.20,1310.53 800.00,1310.13"/>
    </edge>
    <edge id=":1153_16" function="internal">
        <lane id=":1153_16_0" index="0" speed="9.73" length="14.11" shape="800.00,1304.62 801.73,1301.73 805.90,1299.23 811.73,1298.40"/>
    </edge>
    <edge id=":1153_17" function="internal">
        <lane id=":1153_17_0" index="0" speed="7.42" length="11.60" shape="800.00,1304.36 801.16,1302.79 804.60,1303.31 809.42,1307.16"/>
    </edge>
    <edge id=":1153_18" function="internal">
        <lane id=":1153_18_0" index="0" speed="3.65" length="2.34" shape="800.00,1310.13 800.80,1310.53 801.60,1311.73"/>
    </edge>
    <edge id=":1153_4" function="internal">
        <lane id=":1153_4_0" index="0" speed="5.47" length="9.74" shape="807.16,1309.42 804.73,1307.48 802.99,1307.22 801.95,1308.63 801.60,1311.73"/>
    </edge>
    <edge id=":1153_5" function="internal">
        <lane id=":1153_5_0" index="0" speed="13.89" length="19.24" shape="807.16,1309.42 803.33,1305.10 800.59,1300.89 798.95,1296.79 798.40,1292.80"/>
    </edge>
    <edge id=":1153_6" function="internal">
        <lane id=":1153_6_0" index="0" speed="7.42" length="19.31" shape="807.16,1309.42 803.31,1304.60 802.79,1301.16 805.59,1299.09 811.73,1298.40"/>
    </edge>
    <edge id=":1153_7" function="internal">
        <lane id=":1153_7_0" index="0" speed="3.65" length="4.67" shape="807.16,1309.42 806.88,1308.01 807.16,1307.16 808.01,1306.88 809.42,1307.16"/>
    </edge>
    <edge id=":1153_8" function="internal">
        <lane id=":1153_8_0" index="0" speed="5.47" length="9.74" shape="811.73,1301.60 808.63,1301.95 807.22,1302.99 807.48,1304.73 809.42,1307.16"/>
    </edge>
    <edge id=":1153_9" function="internal">
        <lane id=":1153_9_0" index="0" speed="8.54" length="16.33" shape="811.73,1301.60 807.30,1302.23 804.13,1304.13 802.23,1307.30 801.60,1311.73"/>
    </edge>
    <edge id=":1153_10" function="internal">
        <lane id=":1153_10_0" index="0" speed="8.94" length="17.99" shape="811.73,1301.60 805.90,1301.05 801.73,1299.40 799.23,1296.65 798.40,1292.80"/>
    </edge>
    <edge id=":1153_11" function="internal">
        <lane id=":1153_11_0" index="0" speed="3.65" length="4.67" shape="811.73,1301.60 810.53,1300.80 810.13,1300.00 810.53,1299.20 811.73,1298.40"/>
    </edge>
    <edge id=":1153_12" function="internal">
        <lane id=":1153_12_0" index="0" speed="7.65" length="12.89" shape="801.60,1292.80 802.23,1295.25 804.13,1297.00 807.30,1298.05 811.73,1298.40"/>
    </edge>
    <edge id=":1153_13" function="internal">