<?xml version="1.0" encoding="UTF-8"?>

<!-- generated on Sun Aug 29 20:38:27 2021 by Eclipse SUMO netgenerate Version 1.6.0
<configuration xmlns:xsi="http://www.w3.org/2001/XMLSchema-instance" xsi:noNamespaceSchemaLocation="http://sumo.dlr.de/xsd/netgenerateConfiguration.xsd">

    <grid_network>
        <grid value="true"/>
        <grid.number value="3"/>
        <grid.length value="175"/>
    </grid_network>

    <output>
        <output-file value="grid.net.xml"/>
    </output>

    <building_defaults>
        <default.lanenumber value="2"/>
        <default-junction-type value="traffic_light"/>
    </building_defaults>

    <junctions>
        <no-turnarounds value="true"/>
    </junctions>

</configuration>
-->

<net version="1.6" junctionCornerDetail="5" limitTurnSpeed="5.50" xmlns:xsi="http://www.w3.org/2001/XMLSchema-instance" xsi:noNamespaceSchemaLocation="http://sumo.dlr.de/xsd/net_file.xsd">

    <location netOffset="0.00,0.00" convBoundary="0.00,0.00,350.00,350.00" origBoundary="0.00,0.00,350.00,350.00" projParameter="!"/>

    <edge id=":A0_0" function="internal">
        <lane id=":A0_0_0" index="0" speed="8.96" length="18.06" shape="-4.80,6.40 -4.10,1.50 -2.00,-2.00 1.50,-4.10 6.40,-4.80"/>
    </edge>
    <edge id=":A0_1" function="internal">
        <lane id=":A0_1_0" index="0" speed="7.66" length="12.90" shape="-1.60,6.40 -1.10,2.90 0.40,0.40 2.90,-1.10 6.40,-1.60"/>
    </edge>
    <edge id=":A0_2" function="internal">
        <lane id=":A0_2_0" index="0" speed="3.90" length="2.58" shape="6.40,4.80 5.70,4.90 5.20,5.20 4.90,5.70 4.80,6.40"/>
    </edge>
    <edge id=":A0_3" function="internal">
        <lane id=":A0_3_0" index="0" speed="6.08" length="7.74" shape="6.40,1.60 4.30,1.90 2.80,2.80 1.90,4.30 1.60,6.40"/>
    </edge>
    <edge id=":A1_0" function="internal">
        <lane id=":A1_0_0" index="0" speed="13.89" length="20.80" shape="-4.80,185.40 -4.80,164.60"/>
        <lane id=":A1_0_1" index="1" speed="13.89" length="20.80" shape="-1.60,185.40 -1.60,164.60"/>
    </edge>
    <edge id=":A1_2" function="internal">
        <lane id=":A1_2_0" index="0" speed="9.26" length="6.96" shape="-1.60,185.40 -0.85,180.15 -0.00,178.73"/>
    </edge>
    <edge id=":A1_9" function="internal">
        <lane id=":A1_9_0" index="0" speed="9.26" length="12.40" shape="-0.00,178.73 1.40,176.40 5.15,174.15 10.40,173.40"/>
    </edge>
    <edge id=":A1_3" function="internal">
        <lane id=":A1_3_0" index="0" speed="6.51" length="9.03" shape="10.40,179.80 7.95,180.15 6.20,181.20 5.15,182.95 4.80,185.40"/>
    </edge>
    <edge id=":A1_4" function="internal">
        <lane id=":A1_4_0" index="0" speed="8.00" length="14.19" shape="10.40,176.60 6.55,177.15 3.80,178.80 2.15,181.55 1.60,185.40"/>
    </edge>
    <edge id=":A1_5" function="internal">
        <lane id=":A1_5_0" index="0" speed="9.26" length="19.35" shape="10.40,176.60 5.15,175.85 1.40,173.60 -0.85,169.85 -1.60,164.60"/>
    </edge>
    <edge id=":A1_6" function="internal">
        <lane id=":A1_6_0" index="0" speed="6.51" length="9.03" shape="4.80,164.60 5.15,167.05 6.20,168.80 7.95,169.85 10.40,170.20"/>
    </edge>
    <edge id=":A1_7" function="internal">
        <lane id=":A1_7_0" index="0" speed="13.89" length="20.80" shape="4.80,164.60 4.80,185.40"/>
        <lane id=":A1_7_1" index="1" speed="13.89" length="20.80" shape="1.60,164.60 1.60,185.40"/>
    </edge>
    <edge id=":A2_0" function="internal">
        <lane id=":A2_0_0" index="0" speed="8.96" length="18.06" shape="6.40,354.80 1.50,354.10 -2.00,352.00 -4.10,348.50 -4.80,343.60"/>
    </edge>
    <edge id=":A2_1" function="internal">
        <lane id=":A2_1_0" index="0" speed="7.66" length="12.90" shape="6.40,351.60 2.90,351.10 0.40,349.60 -1.10,347.10 -1.60,343.60"/>
    </edge>
    <edge id=":A2_2" function="internal">
        <lane id=":A2_2_0" index="0" speed="3.90" length="2.58" shape="4.80,343.60 4.90,344.30 5.20,344.80 5.70,345.10 6.40,345.20"/>
    </edge>
    <edge id=":A2_3" function="internal">
        <lane id=":A2_3_0" index="0" speed="6.08" length="7.74" shape="1.60,343.60 1.90,345.70 2.80,347.20 4.30,348.10 6.40,348.40"/>
    </edge>
    <edge id=":B0_0" function="internal">
        <lane id=":B0_0_0" index="0" speed="6.51" length="9.03" shape="170.20,10.40 169.85,7.95 168.80,6.20 167.05,5.15 164.60,4.80"/>
    </edge>
    <edge id=":B0_1" function="internal">
        <lane id=":B0_1_0" index="0" speed="8.00" length="14.19" shape="173.40,10.40 172.85,6.55 171.20,3.80 168.45,2.15 164.60,1.60"/>
    </edge>
    <edge id=":B0_2" function="internal">
        <lane id=":B0_2_0" index="0" speed="9.26" length="19.35" shape="173.40,10.40 174.15,5.15 176.40,1.40 180.15,-0.85 185.40,-1.60"/>
    </edge>
    <edge id=":B0_3" function="internal">
        <lane id=":B0_3_0" index="0" speed="6.51" length="9.03" shape="185.40,4.80 182.95,5.15 181.20,6.20 180.15,7.95 179.80,10.40"/>
    </edge>
    <edge id=":B0_4" function="internal">
        <lane id=":B0_4_0" index="0" speed="13.89" length="20.80" shape="185.40,4.80 164.60,4.80"/>
        <lane id=":B0_4_1" index="1" speed="13.89" length="20.80" shape="185.40,1.60 164.60,1.60"/>
    </edge>
    <edge id=":B0_6" function="internal">
        <lane id=":B0_6_0" index="0" speed="13.89" length="20.80" shape="164.60,-4.80 185.40,-4.80"/>
        <lane id=":B0_6_1" index="1" speed="13.89" length="20.80" shape="164.60,-1.60 185.40,-1.60"/>
    </edge>
    <edge id=":B0_8" function="internal">
        <lane id=":B0_8_0" index="0" speed="9.26" length="6.96" shape="164.60,-1.60 169.85,-0.85 171.27,-0.00"/>
    </edge>
    <edge id=":B0_9" function="internal">
        <lane id=":B0_9_0" index="0" speed="9.26" length="12.40" shape="171.27,-0.00 173.60,1.40 175.85,5.15 176.60,10.40"/>
    </edge>
    <edge id=":B1_0" function="internal">
        <lane id=":B1_0_0" index="0" speed="6.51" length="9.03" shape="170.20,185.40 169.85,182.95 168.80,181.20 167.05,180.15 164.60,179.80"/>
    </edge>
    <edge id=":B1_1" function="internal">
        <lane id=":B1_1_0" index="0" speed="13.89" length="20.80" shape="170.20,185.40 170.20,164.60"/>
        <lane id=":B1_1_1" index="1" speed="13.89" length="20.80" shape="173.40,185.40 173.40,164.60"/>
    </edge>
    <edge id=":B1_3" function="internal">
        <lane id=":B1_3_0" index="0" speed="9.26" length="6.96" shape="173.40,185.40 174.15,180.15 175.00,178.73"/>
    </edge>
    <edge id=":B1_16" function="internal">
        <lane id=":B1_16_0" index="0" speed="9.26" length="12.40" shape="175.00,178.73 176.40,176.40 180.15,174.15 185.40,173.40"/>
    </edge>
    <edge id=":B1_4" function="internal">
        <lane id=":B1_4_0" index="0" speed="6.51" length="9.03" shape="185.40,179.80 182.95,180.15 181.20,181.20 180.15,182.95 179.80,185.40"/>
    </edge>
    <edge id=":B1_5" function="internal">
        <lane id=":B1_5_0" index="0" speed="13.89" length="20.80" shape="185.40,179.80 164.60,179.80"/>
        <lane id=":B1_5_1" index="1" speed="13.89" length="20.80" shape="185.40,176.60 164.60,176.60"/>
    </edge>
    <edge id=":B1_7" function="internal">
        <lane id=":B1_7_0" index="0" speed="9.26" length="6.96" shape="185.40,176.60 180.15,175.85 178.73,175.00"/>
    </edge>
    <edge id=":B1_17" function="internal">
        <lane id=":B1_17_0" index="0" speed="9.26" length="12.40" shape="178.73,175.00 176.40,173.60 174.15,169.85 173.40,164.60"/>
    </edge>
    <edge id=":B1_8" function="internal">
        <lane id=":B1_8_0" index="0" speed="6.51" length="9.03" shape="179.80,164.60 180.15,167.05 181.20,168.80 182.95,169.85 185.40,170.20"/>
    </edge>
    <edge id=":B1_9" function="internal">
        <lane id=":B1_9_0" index="0" speed="13.89" length="20.80" shape="179.80,164.60 179.80,185.40"/>
        <lane id=":B1_9_1" index="1" speed="13.89" length="20.80" shape="176.60,164.60 176.60,185.40"/>
    </edge>
    <edge id=":B1_11" function="internal">
        <lane id=":B1_11_0" index="0" speed="9.26" length="6.96" shape="176.60,164.60 175.85,169.85 175.00,171.27"/>
    </edge>
    <edge id=":B1_18" function="internal">
        <lane id=":B1_18_0" index="0" speed="9.26" length="12.40" shape="175.00,171.27 173.60,173.60 169.85,175.85 164.60,176.60"/>
    </edge>
    <edge id=":B1_12" function="internal">
        <lane id=":B1_12_0" index="0" speed="6.51" length="9.03" shape="164.60,170.20 167.05,169.85 168.80,168.80 169.85,167.05 170.20,164.60"/>
    </edge>
    <edge id=":B1_13" function="internal">
        <lane id=":B1_13_0" index="0" speed="13.89" length="20.80" shape="164.60,170.20 185.40,170.20"/>
        <lane id=":B1_13_1" index="1" speed="13.89" length="20.80" shape="164.60,173.40 185.40,173.40"/>
    </edge>
    <edge id=":B1_15" function="internal">
        <lane id=":B1_15_0" index="0" speed="9.26" length="6.96" shape="164.60,173.40 169.85,174.15 171.27,175.00"/>
    </edge>
    <edge id=":B1_19" function="internal">
        <lane id=":B1_19_0" index="0" speed="9.26" length="12.40" shape="171.27,175.00 173.60,176.40 175.85,180.15 176.60,185.40"/>
    </edge>
    <edge id=":B2_0" function="internal">
        <lane id=":B2_0_0" index="0" speed="13.89" length="20.80" shape="185.40,354.80 164.60,354.80"/>
        <lane id=":B2_0_1" index="1" speed="13.89" length="20.80" shape="185.40,351.60 164.60,351.60"/>
    </edge>
    <edge id=":B2_2" function="internal">
        <lane id=":B2_2_0" index="0" speed="9.26" length="6.96" shape="185.40,351.60 180.15,350.85 178.73,350.00"/>
    </edge>
    <edge id=":B2_9" function="internal">
        <lane id=":B2_9_0" index="0" speed="9.26" length="12.40" shape="178.73,350.00 176.40,348.60 174.15,344.85 173.40,339.60"/>
    </edge>
    <edge id=":B2_3" function="internal">
        <lane id=":B2_3_0" index="0" speed="6.51" length="9.03" shape="179.80,339.60 180.15,342.05 181.20,343.80 182.95,344.85 185.40,345.20"/>
    </edge>
    <edge id=":B2_4" function="internal">
        <lane id=":B2_4_0" index="0" speed="8.00" length="14.19" shape="176.60,339.60 177.15,343.45 178.80,346.20 181.55,347.85 185.40,348.40"/>
    </edge>
    <edge id=":B2_5" function="internal">
        <lane id=":B2_5_0" index="0" speed="9.26" length="19.35" shape="176.60,339.60 175.85,344.85 173.60,348.60 169.85,350.85 164.60,351.60"/>
    </edge>
    <edge id=":B2_6" function="internal">
        <lane id=":B2_6_0" index="0" speed="6.51" length="9.03" shape="164.60,345.20 167.05,344.85 168.80,343.80 169.85,342.05 170.20,339.60"/>
    </edge>
    <edge id=":B2_7" function="internal">
        <lane id=":B2_7_0" index="0" speed="13.89" length="20.80" shape="164.60,345.20 185.40,345.20"/>
        <lane id=":B2_7_1" index="1" speed="13.89" length="20.80" shape="164.60,348.40 185.40,348.40"/>
    </edge>
    <edge id=":C0_0" function="internal">
        <lane id=":C0_0_0" index="0" speed="3.90" length="2.58" shape="345.20,6.40 345.10,5.70 344.80,5.20 344.30,4.90 343.60,4.80"/>
    </edge>
    <edge id=":C0_1" function="internal">
        <lane id=":C0_1_0" index="0" speed="6.08" length="7.74" shape="348.40,6.40 348.10,4.30 347.20,2.80 345.70,1.90 343.60,1.60"/>
    </edge>
    <edge id=":C0_2" function="internal">
        <lane id=":C0_2_0" index="0" speed="8.96" length="18.06" shape="343.60,-4.80 348.50,-4.10 352.00,-2.00 354.10,1.50 354.80,6.40"/>
    </edge>
    <edge id=":C0_3" function="internal">
        <lane id=":C0_3_0" index="0" speed="7.66" length="12.90" shape="343.60,-1.60 347.10,-1.10 349.60,0.40 351.10,2.90 351.60,6.40"/>
    </edge>
    <edge id=":C1_0" function="internal">
        <lane id=":C1_0_0" index="0" speed="6.51" length="9.03" shape="345.20,185.40 344.85,182.95 343.80,181.20 342.05,180.15 339.60,179.80"/>
    </edge>
    <edge id=":C1_1" function="internal">
        <lane id=":C1_1_0" index="0" speed="13.89" length="20.80" shape="345.20,185.40 345.20,164.60"/>
        <lane id=":C1_1_1" index="1" speed="13.89" length="20.80" shape="348.40,185.40 348.40,164.60"/>
    </edge>
    <edge id=":C1_3" function="internal">
        <lane id=":C1_3_0" index="0" speed="13.89" length="20.80" shape="354.80,164.60 354.80,185.40"/>
        <lane id=":C1_3_1" index="1" speed="13.89" length="20.80" shape="351.60,164.60 351.60,185.40"/>
    </edge>
    <edge id=":C1_5" function="internal">
        <lane id=":C1_5_0" index="0" speed="9.26" length="6.96" shape="351.60,164.60 350.85,169.85 350.00,171.27"/>
    </edge>
    <edge id=":C1_9" function="internal">
        <lane id=":C1_9_0" index="0" speed="9.26" length="12.40" shape="350.00,171.27 348.60,173.60 344.85,175.85 339.60,176.60"/>
    </edge>
    <edge id=":C1_6" function="internal">
        <lane id=":C1_6_0" index="0" speed="6.51" length="9.03" shape="339.60,170.20 342.05,169.85 343.80,168.80 344.85,167.05 345.20,164.60"/>
    </edge>
    <edge id=":C1_7" function="internal">
        <lane id=":C1_7_0" index="0" speed="8.00" length="14.19" shape="339.60,173.40 343.45,172.85 346.20,171.20 347.85,168.45 348.40,164.60"/>
    </edge>
    <edge id=":C1_8" function="internal">
        <lane id=":C1_8_0" index="0" speed="9.26" length="19.35" shape="339.60,173.40 344.85,174.15 348.60,176.40 350.85,180.15 351.60,185.40"/>
    </edge>
    <edge id=":C2_0" function="internal">
        <lane id=":C2_0_0" index="0" speed="8.96" length="18.06" shape="354.80,343.60 354.10,348.50 352.00,352.00 348.50,354.10 343.60,354.80"/>
    </edge>
    <edge id=":C2_1" function="internal">
        <lane id=":C2_1_0" index="0" speed="7.66" length="12.90" shape="351.60,343.60 351.10,347.10 349.60,349.60 347.10,351.10 343.60,351.60"/>
    </edge>
    <edge id=":C2_2" function="internal">
        <lane id=":C2_2_0" index="0" speed="3.90" length="2.58" shape="343.60,345.20 344.30,345.10 344.80,344.80 345.10,344.30 345.20,343.60"/>
    </edge>
    <edge id=":C2_3" function="internal">
        <lane id=":C2_3_0" index="0" speed="6.08" length="7.74" shape="343.60,348.40 345.70,348.10 347.20,347.20 348.10,345.70 348.40,343.60"/>
    </edge>

    <edge id="A0A1" from="A0" to="A1" priority="-1">
        <lane id="A0A1_0" index="0" speed="13.89" length="158.20" shape="4.80,6.40 4.80,164.60"/>
        <lane id="A0A1_1" index="1" speed="13.89" length="158.20" shape="1.60,6.40 1.60,164.60"/>
    </edge>
    <edge id="A0B0" from="A0" to="B0" priority="-1">
        <lane id="A0B0_0" index="0" speed="13.89" length="158.20" shape="6.40,-4.80 164.60,-4.80"/>
        <lane id="A0B0_1" index="1" speed="13.89" length="158.20" shape="6.40,-1.60 164.60,-1.60"/>
    </edge>
    <edge id="A1A0" from="A1" to="A0" priority="-1">
        <lane id="A1A0_0" index="0" speed="13.89" length="158.20" shape="-4.80,164.60 -4.80,6.40"/>
        <lane id="A1A0_1" index="1" speed="13.89" length="158.20" shape="-1.60,164.60 -1.60,6.40"/>
    </edge>
    <edge id="A1A2" from="A1" to="A2" priority="-1">
        <lane id="A1A2_0" index="0" speed="13.89" length="158.20" shape="4.80,185.40 4.80,343.60"/>
        <lane id="A1A2_1" index="1" speed="13.89" length="158.20" shape="1.60,185.40 1.60,343.60"/>
    </edge>
    <edge id="A1B1" from="A1" to="B1" priority="-1">
        <lane id="A1B1_0" index="0" speed="13.89" length="154.20" shape="10.40,170.20 164.60,170.20"/>
        <lane id="A1B1_1" index="1" speed="13.89" length="154.20" shape="10.40,173.40 164.60,173.40"/>
    </edge>
    <edge id="A2A1" from="A2" to="A1" priority="-1">
        <lane id="A2A1_0" index="0" speed="13.89" length="158.20" shape="-4.80,343.60 -4.80,185.40"/>
        <lane id="A2A1_1" index="1" speed="13.89" length="158.20" shape="-1.60,343.60 -1.60,185.40"/>
    </edge>
    <edge id="A2B2" from="A2" to="B2" priority="-1">
        <lane id="A2B2_0" index="0" speed="13.89" length="158.20" shape="6.40,345.20 164.60,345.20"/>
        <lane id="A2B2_1" index="1" speed="13.89" length="158.20" shape="6.40,348.40 164.60,348.40"/>
    </edge>
    <edge id="B0A0" from="B0" to="A0" priority="-1">
        <lane id="B0A0_0" index="0" speed="13.89" length="158.20" shape="164.60,4.80 6.40,4.80"/>
        <lane id="B0A0_1" index="1" speed="13.89" length="158.20" shape="164.60,1.60 6.40,1.60"/>
    </edge>
    <edge id="B0B1" from="B0" to="B1" priority="-1">
        <lane id="B0B1_0" index="0" speed="13.89" length="154.20" shape="179.80,10.40 179.80,164.60"/>
        <lane id="B0B1_1" index="1" speed="13.89" length="154.20" shape="176.60,10.40 176.60,164.60"/>
    </edge>
    <edge id="B0C0" from="B0" to="C0" priority="-1">
        <lane id="B0C0_0" index="0" speed="13.89" length="158.20" shape="185.40,-4.80 343.60,-4.80"/>
        <lane id="B0C0_1" index="1" speed="13.89" length="158.20" shape="185.40,-1.60 343.60,-1.60"/>
    </edge>
    <edge id="B1A1" from="B1" to="A1" priority="-1">
        <lane id="B1A1_0" index="0" speed="13.89" length="154.20" shape="164.60,179.80 10.40,179.80"/>
        <lane id="B1A1_1" index="1" speed="13.89" length="154.20" shape="164.60,176.60 10.40,176.60"/>
    </edge>
    <edge id="B1B0" from="B1" to="B0" priority="-1">
        <lane id="B1B0_0" index="0" speed="13.89" length="154.20" shape="170.20,164.60 170.20,10.40"/>
        <lane id="B1B0_1" index="1" speed="13.89" length="154.20" shape="173.40,164.60 173.40,10.40"/>
    </edge>
    <edge id="B1B2" from="B1" to="B2" priority="-1">
        <lane id="B1B2_0" index="0" speed="13.89" length="154.20" shape="179.80,185.40 179.80,339.60"/>
        <lane id="B1B2_1" index="1" speed="13.89" length="154.20" shape="176.60,185.40 176.60,339.60"/>
    </edge>
    <edge id="B1C1" from="B1" to="C1" priority="-1">
        <lane id="B1C1_0" index="0" speed="13.89" length="154.20" shape="185.40,170.20 339.60,170.20"/>
        <lane id="B1C1_1" index="1" speed="13.89" length="154.20" shape="185.40,173.40 339.60,173.40"/>
    </edge>
    <edge id="B2A2" from="B2" to="A2" priority="-1">
        <lane id="B2A2_0" index="0" speed="13.89" length="158.20" shape="164.60,354.80 6.40,354.80"/>
        <lane id="B2A2_1" index="1" speed="13.89" length="158.20" shape="164.60,351.60 6.40,351.60"/>
    </edge>
    <edge id="B2B1" from="B2" to="B1" priority="-1">
        <lane id="B2B1_0" index="0" speed="13.89" length="154.20" shape="170.20,339.60 170.20,185.40"/>
        <lane id="B2B1_1" index="1" speed="13.89" length="154.20" shape="173.40,339.60 173.40,185.40"/>
    </edge>
    <edge id="B2C2" from="B2" to="C2" priority="-1">
        <lane id="B2C2_0" index="0" speed="13.89" length="158.20" shape="185.40,345.20 343.60,345.20"/>
        <lane id="B2C2_1" index="1" speed="13.89" length="158.20" shape="185.40,348.40 343.60,348.40"/>
    </edge>
    <edge id="C0B0" from="C0" to="B0" priority="-1">
        <lane id="C0B0_0" index="0" speed="13.89" length="158.20" shape="343.60,4.80 185.40,4.80"/>
        <lane id="C0B0_1" index="1" speed="13.89" length="158.20" shape="343.60,1.60 185.40,1.60"/>
    </edge>
    <edge id="C0C1" from="C0" to="C1" priority="-1">
        <lane id="C0C1_0" index="0" speed="13.89" length="158.20" shape="354.80,6.40 354.80,164.60"/>
        <lane id="C0C1_1" index="1" speed="13.89" length="158.20" shape="351.60,6.40 351.60,164.60"/>
    </edge>
    <edge id="C1B1" from="C1" to="B1" priority="-1">
        <lane id="C1B1_0" index="0" speed="13.89" length="154.20" shape="339.60,179.80 185.40,179.80"/>
        <lane id="C1B1_1" index="1" speed="13.89" length="154.20" shape="339.60,176.60 185.40,176.60"/>
    </edge>
    <edge id="C1C0" from="C1" to="C0" priority="-1">
        <lane id="C1C0_0" index="0" speed="13.89" length="158.20" shape="345.20,164.60 345.20,6.40"/>
        <lane id="C1C0_1" index="1" speed="13.89" length="158.20" shape="348.40,164.60 348.40,6.40"/>
    </edge>
    <edge id="C1C2" from="C1" to="C2" priority="-1">
        <lane id="C1C2_0" index="0" speed="13.89" length="158.20" shape="354.80,185.40 354.80,343.60"/>
        <lane id="C1C2_1" index="1" speed="13.89" length="158.20" shape="351.60,185.40 351.60,343.60"/>
    </edge>
    <edge id="C2B2" from="C2" to="B2" priority="-1">
        <lane id="C2B2_0" index="0" speed="13.89" length="158.20" shape="343.60,354.80 185.40,354.80"/>
        <lane id="C2B2_1" index="1" speed="13.89" length="158.20" shape="343.60,351.60 185.40,351.60"/>
    </edge>
    <edge id="C2C1" from="C2" to="C1" priority="-1">
        <lane id="C2C1_0" index="0" speed="13.89" length="158.20" shape="345.20,343.60 345.20,185.40"/>
        <lane id="C2C1_1" index="1" speed="13.89" length="158.20" shape="348.40,343.60 348.40,185.40"/>
    </edge>

    <tlLogic id="A0" type="static" programID="0" offset="0">
        <phase duration="42" state="GGGG"/>
        <phase duration="3"  state="yyyy"/>
        <phase duration="42" state="GGGG"/>
        <phase duration="3"  state="yyyy"/>
    </tlLogic>
    <tlLogic id="A1" type="static" programID="0" offset="0">
        <phase duration="42" state="GGgrrrGGG"/>
        <phase duration="3"  state="yyyrrryyy"/>
        <phase duration="42" state="rrrGGGGrr"/>
        <phase duration="3"  state="rrryyyyrr"/>
    </tlLogic>
    <tlLogic id="A2" type="static" programID="0" offset="0">
        <phase duration="42" state="GGGG"/>
        <phase duration="3"  state="yyyy"/>
        <phase duration="42" state="GGGG"/>
        <phase duration="3"  state="yyyy"/>
    </tlLogic>
    <tlLogic id="B0" type="static" programID="0" offset="0">
        <phase duration="42" state="rrrGGGGGg"/>
        <phase duration="3"  state="rrryyyyyy"/>
        <phase duration="42" state="GGGGrrrrr"/>
        <phase duration="3"  state="yyyyrrrrr"/>
    </tlLogic>
    <tlLogic id="B1" type="static" programID="0" offset="0">
        <phase duration="42" state="GGGgrrrrGGGgrrrr"/>
        <phase duration="3"  state="yyyyrrrryyyyrrrr"/>
        <phase duration="42" state="rrrrGGGgrrrrGGGg"/>
        <phase duration="3"  state="rrrryyyyrrrryyyy"/>
    </tlLogic>
    <tlLogic id="B2" type="static" programID="0" offset="0">
        <phase duration="42" state="GGgrrrGGG"/>
        <phase duration="3"  state="yyyrrryyy"/>
        <phase duration="42" state="rrrGGGGrr"/>
        <phase duration="3"  state="rrryyyyrr"/>
    </tlLogic>
    <tlLogic id="C0" type="static" programID="0" offset="0">
        <phase duration="42" state="GGGG"/>
        <phase duration="3"  state="yyyy"/>
        <phase duration="42" state="GGGG"/>
        <phase duration="3"  state="yyyy"/>
    </tlLogic>
    <tlLogic id="C1" type="static" programID="0" offset="0">
        <phase duration="42" state="GGGGGgrrr"/>
        <phase duration="3"  state="yyyyyyrrr"/>
        <phase duration="42" state="GrrrrrGGG"/>
        <phase duration="3"  state="yrrrrryyy"/>
    </tlLogic>
    <tlLogic id="C2" type="static" programID="0" offset="0">
        <phase duration="42" state="GGGG"/>
        <phase duration="3"  state="yyyy"/>
        <phase duration="42" state="GGGG"/>
        <phase duration="3"  state="yyyy"/>
    </tlLogic>

    <junction id="A0" type="traffic_light" x="0.00" y="0.00" incLanes="A1A0_0 A1A0_1 B0A0_0 B0A0_1" intLanes=":A0_0_0 :A0_1_0 :A0_2_0 :A0_3_0" shape="-6.40,6.40 6.40,6.40 6.40,-6.40 2.49,-6.04 -0.71,-4.98 -3.20,-3.20 -4.98,-0.71 -6.04,2.49">
        <request index="0" response="0000" foes="0000" cont="0"/>
        <request index="1" response="0000" foes="0000" cont="0"/>
        <request index="2" response="0000" foes="0000" cont="0"/>
        <request index="3" response="0000" foes="0000" cont="0"/>
    </junction>
    <junction id="A1" type="traffic_light" x="0.00" y="175.00" incLanes="A2A1_0 A2A1_1 B1A1_0 B1A1_1 A0A1_0 A0A1_1" intLanes=":A1_0_0 :A1_0_1 :A1_9_0 :A1_3_0 :A1_4_0 :A1_5_0 :A1_6_0 :A1_7_0 :A1_7_1" shape="-6.40,185.40 6.40,185.40 6.84,183.18 7.40,182.40 8.18,181.84 9.18,181.51 10.40,181.40 10.40,168.60 8.18,168.16 7.40,167.60 6.84,166.82 6.51,165.82 6.40,164.60 -6.40,164.60">
        <request index="0" response="000000000" foes="000100000" cont="0"/>
        <request index="1" response="000000000" foes="000100000" cont="0"/>
        <request index="2" response="110000000" foes="110100000" cont="1"/>
        <request index="3" response="110000000" foes="110000000" cont="0"/>
        <request index="4" response="110000000" foes="110000000" cont="0"/>
        <request index="5" response="110000111" foes="110000111" cont="0"/>
        <request index="6" response="000000000" foes="000000000" cont="0"/>
        <request index="7" response="000000000" foes="000111100" cont="0"/>
        <request index="8" response="000000000" foes="000111100" cont="0"/>
    </junction>
    <junction id="A2" type="traffic_light" x="0.00" y="350.00" incLanes="B2A2_0 B2A2_1 A1A2_0 A1A2_1" intLanes=":A2_0_0 :A2_1_0 :A2_2_0 :A2_3_0" shape="6.40,356.40 6.40,343.60 -6.40,343.60 -6.04,347.51 -4.98,350.71 -3.20,353.20 -0.71,354.98 2.49,356.04">
        <request index="0" response="0000" foes="0000" cont="0"/>
        <request index="1" response="0000" foes="0000" cont="0"/>
        <request index="2" response="0000" foes="0000" cont="0"/>
        <request index="3" response="0000" foes="0000" cont="0"/>
    </junction>
    <junction id="B0" type="traffic_light" x="175.00" y="0.00" incLanes="B1B0_0 B1B0_1 C0B0_0 C0B0_1 A0B0_0 A0B0_1" intLanes=":B0_0_0 :B0_1_0 :B0_2_0 :B0_3_0 :B0_4_0 :B0_4_1 :B0_6_0 :B0_6_1 :B0_9_0" shape="168.60,10.40 181.40,10.40 181.84,8.18 182.40,7.40 183.18,6.84 184.18,6.51 185.40,6.40 185.40,-6.40 164.60,-6.40 164.60,6.40 166.82,6.84 167.60,7.40 168.16,8.18 168.49,9.18">
        <request index="0" response="000110000" foes="000110000" cont="0"/>
        <request index="1" response="000110000" foes="000110000" cont="0"/>
        <request index="2" response="111110000" foes="111110000" cont="0"/>
        <request index="3" response="000000000" foes="000000000" cont="0"/>
        <request index="4" response="000000000" foes="100000111" cont="0"/>
        <request index="5" response="000000000" foes="100000111" cont="0"/>
        <request index="6" response="000000000" foes="000000100" cont="0"/>
        <request index="7" response="000000000" foes="000000100" cont="0"/>
        <request index="8" response="000110000" foes="000110100" cont="1"/>
    </junction>
    <junction id="B1" type="traffic_light" x="175.00" y="175.00" incLanes="B2B1_0 B2B1_1 C1B1_0 C1B1_1 B0B1_0 B0B1_1 A1B1_0 A1B1_1" intLanes=":B1_0_0 :B1_1_0 :B1_1_1 :B1_16_0 :B1_4_0 :B1_5_0 :B1_5_1 :B1_17_0 :B1_8_0 :B1_9_0 :B1_9_1 :B1_18_0 :B1_12_0 :B1_13_0 :B1_13_1 :B1_19_0" shape="168.60,185.40 181.40,185.40 181.84,183.18 182.40,182.40 183.18,181.84 184.18,181.51 185.40,181.40 185.40,168.60 183.18,168.16 182.40,167.60 181.84,166.82 181.51,165.82 181.40,164.60 168.60,164.60 168.16,166.82 167.60,167.60 166.82,168.16 165.82,168.49 164.60,168.60 164.60,181.40 166.82,181.84 167.60,182.40 168.16,183.18 168.49,184.18">
        <request index="0"  response="0000000000000000" foes="0000000001100000" cont="0"/>
        <request index="1"  response="1000000010000000" foes="1111100011100000" cont="0"/>
        <request index="2"  response="1000000010000000" foes="1111100011100000" cont="0"/>
        <request index="3"  response="1000011010000000" foes="1110011011100000" cont="1"/>
        <request index="4"  response="0000011000000000" foes="0000011000000000" cont="0"/>
        <request index="5"  response="0000111000001111" foes="1000111000001111" cont="0"/>
        <request index="6"  response="0000111000001111" foes="1000111000001111" cont="0"/>
        <request index="7"  response="0110111000001110" foes="0110111000001110" cont="1"/>
        <request index="8"  response="0000000000000000" foes="0110000000000000" cont="0"/>
        <request index="9"  response="1000000010000000" foes="1110000011111000" cont="0"/>
        <request index="10" response="1000000010000000" foes="1110000011111000" cont="0"/>
        <request index="11" response="1000000010000110" foes="1110000011100110" cont="1"/>
        <request index="12" response="0000000000000110" foes="0000000000000110" cont="0"/>
        <request index="13" response="0000111100001110" foes="0000111110001110" cont="0"/>
        <request index="14" response="0000111100001110" foes="0000111110001110" cont="0"/>
        <request index="15" response="0000111001101110" foes="0000111001101110" cont="1"/>
    </junction>
    <junction id="B2" type="traffic_light" x="175.00" y="350.00" incLanes="C2B2_0 C2B2_1 B1B2_0 B1B2_1 A2B2_0 A2B2_1" intLanes=":B2_0_0 :B2_0_1 :B2_9_0 :B2_3_0 :B2_4_0 :B2_5_0 :B2_6_0 :B2_7_0 :B2_7_1" shape="185.40,356.40 185.40,343.60 183.18,343.16 182.40,342.60 181.84,341.82 181.51,340.82 181.40,339.60 168.60,339.60 168.16,341.82 167.60,342.60 166.82,343.16 165.82,343.49 164.60,343.60 164.60,356.40">
        <request index="0" response="000000000" foes="000100000" cont="0"/>
        <request index="1" response="000000000" foes="000100000" cont="0"/>
        <request index="2" response="110000000" foes="110100000" cont="1"/>
        <request index="3" response="110000000" foes="110000000" cont="0"/>
        <request index="4" response="110000000" foes="110000000" cont="0"/>
        <request index="5" response="110000111" foes="110000111" cont="0"/>
        <request index="6" response="000000000" foes="000000000" cont="0"/>
        <request index="7" response="000000000" foes="000111100" cont="0"/>
        <request index="8" response="000000000" foes="000111100" cont="0"/>
    </junction>
    <junction id="C0" type="traffic_light" x="350.00" y="0.00" incLanes="C1C0_0 C1C0_1 B0C0_0 B0C0_1" intLanes=":C0_0_0 :C0_1_0 :C0_2_0 :C0_3_0" shape="343.60,6.40 356.40,6.40 356.04,2.49 354.98,-0.71 353.20,-3.20 350.71,-4.98 347.51,-6.04 343.60,-6.40">
        <request index="0" response="0000" foes="0000" cont="0"/>
        <request index="1" response="0000" foes="0000" cont="0"/>
        <request index="2" response="0000" foes="0000" cont="0"/>
        <request index="3" response="0000" foes="0000" cont="0"/>
    </junction>