<?xml version="1.0" encoding="UTF-8"?>

<!-- generated on 08/25/21 11:01:20 by Eclipse SUMO netgenerate Version 1.8.0
<configuration xmlns:xsi="http://www.w3.org/2001/XMLSchema-instance" xsi:noNamespaceSchemaLocation="http://sumo.dlr.de/xsd/netgenerateConfiguration.xsd">

    <spider_network>
        <spider value="true"/>
        <spider.arm-number value="8"/>
        <spider.circle-number value="4"/>
        <spider.space-radius value="100"/>
    </spider_network>

    <random_network>
        <rand.random-lanenumber value="true"/>
    </random_network>

    <output>
        <output-file value="spider8.net.xml"/>
    </output>

    <building_defaults>
        <default.lanenumber value="3"/>
    </building_defaults>

    <junctions>
        <no-turnarounds value="true"/>
    </junctions>

</configuration>
-->

<net version="1.6" junctionCornerDetail="5" limitTurnSpeed="5.50" xmlns:xsi="http://www.w3.org/2001/XMLSchema-instance" xsi:noNamespaceSchemaLocation="http://sumo.dlr.de/xsd/net_file.xsd">

    <location netOffset="400.00,400.00" convBoundary="0.00,0.00,800.00,800.00" origBoundary="-400.00,-400.00,400.00,400.00" projParameter="!"/>

    <edge id=":A1_0" function="internal">
        <lane id=":A1_0_0" index="0" speed="5.68" length="10.59" shape="398.40,416.25 397.99,413.22 396.78,411.98 394.75,412.53 391.90,414.89"/>
    </edge>
    <edge id=":A1_1" function="internal">
        <lane id=":A1_1_0" index="0" speed="9.40" length="20.00" shape="398.40,416.25 397.57,411.24 395.07,407.66 390.90,405.52 385.07,404.80"/>
    </edge>
    <edge id=":A1_2" function="internal">
        <lane id=":A1_2_0" index="0" speed="13.89" length="35.67" shape="398.40,416.25 397.43,408.46 394.51,400.67 389.65,392.89 382.85,385.11"/>
    </edge>
    <edge id=":A1_3" function="internal">
        <lane id=":A1_3_0" index="0" speed="13.89" length="40.23" shape="398.40,416.25 398.40,376.02"/>
    </edge>
    <edge id=":A1_4" function="internal">
        <lane id=":A1_4_0" index="0" speed="13.89" length="42.54" shape="398.40,416.25 399.63,407.62 403.32,398.64 409.47,389.32 418.09,379.65"/>
    </edge>
    <edge id=":A1_5" function="internal">
        <lane id=":A1_5_0" index="0" speed="12.81" length="38.01" shape="398.40,416.25 400.20,408.44 405.59,402.86 414.59,399.52 427.18,398.40"/>
    </edge>
    <edge id=":A1_6" function="internal">
        <lane id=":A1_6_0" index="0" speed="7.79" length="21.43" shape="398.40,416.25 400.71,412.77 406.11,411.56 412.35,412.35 417.15,414.89"/>
    </edge>
    <edge id=":A1_7" function="internal">
        <lane id=":A1_7_0" index="0" speed="6.69" length="15.39" shape="412.62,419.41 407.80,415.08 404.36,413.11 402.29,413.50 401.60,416.25"/>
    </edge>
    <edge id=":A1_8" function="internal">
        <lane id=":A1_8_0" index="0" speed="10.23" length="23.85" shape="412.62,419.41 406.59,414.39 401.13,411.97 396.23,412.13 391.90,414.89"/>
    </edge>
    <edge id=":A1_9" function="internal">
        <lane id=":A1_9_0" index="0" speed="13.89" length="31.93" shape="412.62,419.41 405.42,413.02 398.43,408.45 391.65,405.71 385.07,404.80"/>
    </edge>
    <edge id=":A1_10" function="internal">
        <lane id=":A1_10_0" index="0" speed="13.89" length="45.41" shape="412.62,419.41 382.85,385.11"/>
    </edge>
    <edge id=":A1_11" function="internal">
        <lane id=":A1_11_0" index="0" speed="13.89" length="45.47" shape="414.89,417.15 407.67,408.40 402.52,398.62 399.43,387.83 398.40,376.02"/>
    </edge>
    <edge id=":A1_12" function="internal">
        <lane id=":A1_12_0" index="0" speed="13.58" length="42.82" shape="414.89,417.15 408.65,408.37 407.11,399.20 410.25,389.63 418.09,379.65"/>
    </edge>
    <edge id=":A1_13" function="internal">
        <lane id=":A1_13_0" index="0" speed="8.47" length="25.61" shape="414.89,417.15 413.53,411.99 416.25,405.79 421.36,400.59 427.18,398.40"/>
    </edge>
    <edge id=":A1_14" function="internal">
        <lane id=":A1_14_0" index="0" speed="5.97" length="11.90" shape="427.18,404.80 422.68,405.15 420.27,406.19 419.93,407.93 421.67,410.36"/>
    </edge>
    <edge id=":A1_15" function="internal">
        <lane id=":A1_15_0" index="0" speed="11.56" length="30.73" shape="427.18,404.80 415.99,405.52 407.99,407.66 403.20,411.24 401.60,416.25"/>
    </edge>
    <edge id=":A1_16" function="internal">
        <lane id=":A1_16_0" index="0" speed="13.89" length="37.53" shape="427.18,404.80 415.53,405.43 405.76,407.32 397.89,410.47 391.90,414.89"/>
    </edge>
    <edge id=":A1_17" function="internal">
        <lane id=":A1_17_0" index="0" speed="13.89" length="42.10" shape="427.18,404.80 385.07,404.80"/>
        <lane id=":A1_17_1" index="1" speed="13.89" length="42.10" shape="427.18,401.60 385.07,401.60"/>
    </edge>
    <edge id=":A1_19" function="internal">
        <lane id=":A1_19_0" index="0" speed="13.89" length="48.52" shape="427.18,401.60 413.97,400.57 402.18,397.48 391.80,392.33 382.85,385.11"/>
    </edge>
    <edge id=":A1_20" function="internal">
        <lane id=":A1_20_0" index="0" speed="13.74" length="43.86" shape="427.18,401.60 414.59,400.00 405.59,395.21 400.20,387.21 398.40,376.02"/>
    </edge>
    <edge id=":A1_21" function="internal">
        <lane id=":A1_21_0" index="0" speed="8.70" length="27.17" shape="427.18,401.60 421.63,398.96 417.56,392.73 416.03,385.44 418.09,379.65"/>
    </edge>
    <edge id=":A1_22" function="internal">
        <lane id=":A1_22_0" index="0" speed="5.47" length="9.74" shape="424.87,386.44 422.93,388.87 422.67,390.61 424.08,391.65 427.18,392.00"/>
    </edge>
    <edge id=":A1_23" function="internal">
        <lane id=":A1_23_0" index="0" speed="10.93" length="27.37" shape="424.87,386.44 419.59,393.02 417.29,399.20 417.99,404.98 421.67,410.36"/>
    </edge>
    <edge id=":A1_24" function="internal">
        <lane id=":A1_24_0" index="0" speed="13.89" length="38.18" shape="424.87,386.44 414.69,397.03 407.42,405.53 403.05,411.94 401.60,416.25"/>
    </edge>
    <edge id=":A1_25" function="internal">
        <lane id=":A1_25_0" index="0" speed="13.89" length="43.55" shape="424.87,386.44 391.90,414.89"/>
        <lane id=":A1_25_1" index="1" speed="13.89" length="43.55" shape="422.61,384.18 389.64,412.62"/>
    </edge>
    <edge id=":A1_27" function="internal">
        <lane id=":A1_27_0" index="0" speed="13.89" length="43.82" shape="422.61,384.18 412.53,393.20 402.92,399.64 393.76,403.51 385.07,404.80"/>
    </edge>
    <edge id=":A1_28" function="internal">
        <lane id=":A1_28_0" index="0" speed="13.89" length="41.32" shape="420.35,381.91 410.76,390.53 401.69,396.68 393.12,400.37 385.07,401.60"/>
    </edge>
    <edge id=":A1_29" function="internal">
        <lane id=":A1_29_0" index="0" speed="13.58" length="42.82" shape="420.35,381.91 410.37,389.75 400.80,392.89 391.63,391.35 382.85,385.11"/>
    </edge>
    <edge id=":A1_30" function="internal">
        <lane id=":A1_30_0" index="0" speed="8.52" length="25.98" shape="420.35,381.91 414.66,384.32 407.37,383.82 401.08,380.89 398.40,376.02"/>
    </edge>
    <edge id=":A1_31" function="internal">
        <lane id=":A1_31_0" index="0" speed="7.09" length="17.44" shape="404.80,376.02 405.49,380.75 407.56,382.56 411.00,381.44 415.82,377.39"/>
    </edge>
    <edge id=":A1_32" function="internal">
        <lane id=":A1_32_0" index="0" speed="11.62" length="31.10" shape="404.80,376.02 406.20,383.01 410.39,388.01 417.39,391.00 427.18,392.00"/>
    </edge>
    <edge id=":A1_33" function="internal">
        <lane id=":A1_33_0" index="0" speed="13.89" length="40.44" shape="404.80,376.02 405.71,386.56 408.45,396.17 413.02,404.86 419.41,412.62"/>
    </edge>
    <edge id=":A1_34" function="internal">
        <lane id=":A1_34_0" index="0" speed="13.89" length="40.35" shape="404.80,376.02 401.60,416.25"/>
    </edge>
    <edge id=":A1_35" function="internal">
        <lane id=":A1_35_0" index="0" speed="13.89" length="39.46" shape="401.60,376.02 400.85,387.55 398.61,397.49 394.87,405.85 389.64,412.62"/>
    </edge>
    <edge id=":A1_36" function="internal">
        <lane id=":A1_36_0" index="0" speed="12.18" length="34.26" shape="401.60,376.02 400.57,387.21 397.47,395.21 392.30,400.00 385.07,401.60"/>
    </edge>
    <edge id=":A1_37" function="internal">
        <lane id=":A1_37_0" index="0" speed="8.18" length="23.83" shape="401.60,376.02 399.36,381.06 394.07,385.02 387.85,386.74 382.85,385.11"/>
    </edge>
    <edge id=":A1_38" function="internal">
        <lane id=":A1_38_0" index="0" speed="5.47" length="9.74" shape="389.64,378.33 392.07,380.27 393.81,380.53 394.85,379.12 395.20,376.02"/>
    </edge>
    <edge id=":A1_39" function="internal">
        <lane id=":A1_39_0" index="0" speed="11.40" length="29.87" shape="389.64,378.33 396.01,383.00 402.50,384.40 409.10,382.53 415.82,377.39"/>
    </edge>
    <edge id=":A1_40" function="internal">
        <lane id=":A1_40_0" index="0" speed="13.89" length="42.23" shape="389.64,378.33 398.31,385.71 407.46,390.98 417.08,394.15 427.18,395.20"/>
    </edge>
    <edge id=":A1_41" function="internal">
        <lane id=":A1_41_0" index="0" speed="13.89" length="45.41" shape="389.64,378.33 419.41,412.62"/>
        <lane id=":A1_41_1" index="1" speed="13.89" length="45.41" shape="387.38,380.59 417.15,414.89"/>
    </edge>
    <edge id=":A1_43" function="internal">
        <lane id=":A1_43_0" index="0" speed="13.89" length="39.40" shape="387.38,380.59 393.60,388.15 398.04,396.62 400.71,405.98 401.60,416.25"/>
    </edge>
    <edge id=":A1_44" function="internal">
        <lane id=":A1_44_0" index="0" speed="12.15" length="34.11" shape="385.11,382.85 391.83,391.14 394.82,398.87 394.09,406.03 389.64,412.62"/>
    </edge>
    <edge id=":A1_45" function="internal">
        <lane id=":A1_45_0" index="0" speed="7.77" length="21.34" shape="385.11,382.85 387.85,387.65 389.10,393.88 388.34,399.29 385.07,401.60"/>
    </edge>
    <edge id=":A1_46" function="internal">
        <lane id=":A1_46_0" index="0" speed="6.48" length="14.33" shape="385.07,395.20 387.88,394.57 388.45,392.68 386.77,389.53 382.85,385.11"/>
    </edge>
    <edge id=":A1_47" function="internal">
        <lane id=":A1_47_0" index="0" speed="10.27" length="24.08" shape="385.07,395.20 389.50,394.00 392.67,390.41 394.57,384.41 395.20,376.02"/>
    </edge>
    <edge id=":A1_48" function="internal">
        <lane id=":A1_48_0" index="0" speed="13.89" length="36.31" shape="385.07,395.20 391.85,394.09 399.23,390.75 407.22,385.18 415.82,377.39"/>
    </edge>
    <edge id=":A1_49" function="internal">
        <lane id=":A1_49_0" index="0" speed="13.89" length="42.10" shape="385.07,395.20 427.18,395.20"/>
        <lane id=":A1_49_1" index="1" speed="13.89" length="42.10" shape="385.07,398.40 427.18,398.40"/>
    </edge>
    <edge id=":A1_51" function="internal">
        <lane id=":A1_51_0" index="0" speed="13.89" length="38.14" shape="385.07,398.40 394.76,399.29 403.72,401.96 411.93,406.40 419.41,412.62"/>
    </edge>
    <edge id=":A1_52" function="internal">
        <lane id=":A1_52_0" index="0" speed="11.00" length="27.73" shape="385.07,398.40 392.30,399.52 397.47,402.86 400.57,408.44 401.60,416.25"/>
    </edge>
    <edge id=":A1_53" function="internal">
        <lane id=":A1_53_0" index="0" speed="7.02" length="17.08" shape="385.07,398.40 388.38,400.13 390.54,404.19 391.11,408.91 389.64,412.62"/>
    </edge>
    <edge id=":A1_54" function="internal">
        <lane id=":A1_54_0" index="0" speed="5.47" length="9.74" shape="387.38,410.36 389.32,407.93 389.58,406.19 388.17,405.15 385.07,404.80"/>
    </edge>
    <edge id=":A1_55" function="internal">
        <lane id=":A1_55_0" index="0" speed="11.23" length="28.97" shape="387.38,410.36 390.98,404.90 391.43,398.87 388.72,392.27 382.85,385.11"/>
    </edge>
    <edge id=":A1_56" function="internal">
        <lane id=":A1_56_0" index="0" speed="13.89" length="35.89" shape="387.38,410.36 390.80,405.28 393.24,397.86 394.71,388.11 395.20,376.02"/>
    </edge>
    <edge id=":A1_57" function="internal">
        <lane id=":A1_57_0" index="0" speed="13.89" length="43.43" shape="387.38,410.36 418.09,379.65"/>
    </edge>
    <edge id=":A1_58" function="internal">
        <lane id=":A1_58_0" index="0" speed="13.89" length="43.70" shape="387.38,410.36 395.55,403.73 404.91,398.99 415.45,396.15 427.18,395.20"/>
    </edge>
    <edge id=":A1_59" function="internal">
        <lane id=":A1_59_0" index="0" speed="12.15" length="34.11" shape="387.38,410.36 393.97,405.91 401.13,405.18 408.86,408.17 417.15,414.89"/>
    </edge>
    <edge id=":A1_60" function="internal">
        <lane id=":A1_60_0" index="0" speed="7.12" length="17.61" shape="387.38,410.36 391.13,409.03 395.85,410.02 399.89,412.66 401.60,416.25"/>
    </edge>
    <edge id=":B1_0" function="internal">
        <lane id=":B1_0_0" index="0" speed="10.28" length="16.86" shape="510.41,404.80 506.98,405.48 503.89,407.50 501.14,410.88 498.73,415.61"/>
    </edge>
    <edge id=":B1_1" function="internal">
        <lane id=":B1_1_0" index="0" speed="13.89" length="27.46" shape="510.41,404.80 482.96,404.80"/>
        <lane id=":B1_1_1" index="1" speed="13.89" length="27.46" shape="510.41,401.60 482.96,401.60"/>
    </edge>
    <edge id=":B1_3" function="internal">
        <lane id=":B1_3_0" index="0" speed="12.46" length="25.15" shape="510.41,401.60 504.99,400.63 500.20,397.72 496.04,392.88 492.51,386.09"/>
    </edge>
    <edge id=":B1_4" function="internal">
        <lane id=":B1_4_0" index="0" speed="9.36" length="13.86" shape="501.38,382.42 503.43,386.61 505.62,389.60 507.95,391.40 510.41,392.00"/>
    </edge>
    <edge id=":B1_5" function="internal">
        <lane id=":B1_5_0" index="0" speed="10.49" length="17.61" shape="498.42,383.64 500.96,388.70 503.81,392.31 506.96,394.48 510.41,395.20"/>
    </edge>
    <edge id=":B1_6" function="internal">
        <lane id=":B1_6_0" index="0" speed="13.89" length="31.96" shape="498.42,383.64 500.97,392.99 500.69,400.74 498.61,407.63 495.77,414.38"/>
    </edge>
    <edge id=":B1_7" function="internal">
        <lane id=":B1_7_0" index="0" speed="9.55" length="16.61" shape="495.46,384.87 497.28,392.19 495.80,397.42 492.76,399.41"/>
    </edge>
    <edge id=":B1_17" function="internal">
        <lane id=":B1_17_0" index="0" speed="9.55" length="10.21" shape="492.76,399.41 491.03,400.55 482.96,401.60"/>
    </edge>
    <edge id=":B1_8" function="internal">
        <lane id=":B1_8_0" index="0" speed="6.94" length="13.55" shape="482.96,392.00 488.05,391.63 491.34,390.52 492.83,388.68 492.51,386.09"/>
    </edge>
    <edge id=":B1_9" function="internal">
        <lane id=":B1_9_0" index="0" speed="13.89" length="27.46" shape="482.96,392.00 510.41,392.00"/>
        <lane id=":B1_9_1" index="1" speed="13.89" length="27.46" shape="482.96,395.20 510.41,395.20"/>
        <lane id=":B1_9_2" index="2" speed="13.89" length="27.46" shape="482.96,398.40 510.41,398.40"/>
    </edge>
    <edge id=":B1_12" function="internal">
        <lane id=":B1_12_0" index="0" speed="9.45" length="26.27" shape="482.96,398.40 491.05,399.40 495.88,402.40 497.46,407.39 495.77,414.38"/>
    </edge>
    <edge id=":B1_13" function="internal">
        <lane id=":B1_13_0" index="0" speed="5.82" length="9.13" shape="486.91,410.71 487.58,408.12 487.14,406.28 485.60,405.17 482.96,404.80"/>
    </edge>
    <edge id=":B1_14" function="internal">
        <lane id=":B1_14_0" index="0" speed="13.89" length="25.66" shape="486.91,410.71 490.09,402.59 492.24,395.76 493.12,390.25 492.51,386.09"/>
    </edge>
    <edge id=":B1_15" function="internal">
        <lane id=":B1_15_0" index="0" speed="13.18" length="16.11" shape="489.86,411.93 493.75,404.61 498.47,399.38 499.15,399.00"/>
    </edge>
    <edge id=":B1_16" function="internal">
        <lane id=":B1_16_0" index="0" speed="12.28" length="9.61" shape="492.82,413.16 496.21,406.70 497.74,404.96"/>
    </edge>
    <edge id=":B1_18" function="internal">
        <lane id=":B1_18_0" index="0" speed="13.18" length="12.08" shape="499.15,399.00 504.02,396.25 510.41,395.20"/>
    </edge>
    <edge id=":B1_19" function="internal">
        <lane id=":B1_19_0" index="0" speed="12.28" length="14.80" shape="497.74,404.96 500.27,402.09 505.01,399.32 510.41,398.40"/>
    </edge>
    <edge id=":B2_0" function="internal">
        <lane id=":B2_0_0" index="0" speed="9.91" length="15.64" shape="472.23,479.02 469.40,477.04 466.01,476.19 462.06,476.47 457.55,477.89"/>
    </edge>
    <edge id=":B2_1" function="internal">
        <lane id=":B2_1_0" index="0" speed="13.89" length="25.32" shape="472.23,479.02 454.33,461.12"/>
        <lane id=":B2_1_1" index="1" speed="13.89" length="25.32" shape="474.49,476.76 456.59,458.85"/>
    </edge>
    <edge id=":B2_3" function="internal">
        <lane id=":B2_3_0" index="0" speed="12.38" length="24.78" shape="474.49,476.76 472.48,473.15 472.10,468.01 473.36,461.34 476.26,453.13"/>
    </edge>
    <edge id=":B2_4" function="internal">
        <lane id=":B2_4_0" index="0" speed="9.75" length="15.11" shape="482.17,455.58 480.44,460.53 479.71,464.58 479.99,467.73 481.28,469.97"/>
    </edge>
    <edge id=":B2_5" function="internal">
        <lane id=":B2_5_0" index="0" speed="13.89" length="34.08" shape="482.17,455.58 478.36,462.46 472.99,468.47 466.05,473.61 457.55,477.89"/>
    </edge>
    <edge id=":B2_6" function="internal">
        <lane id=":B2_6_0" index="0" speed="9.89" length="28.93" shape="479.22,454.35 474.89,461.33 469.46,464.44 463.26,463.64 456.59,458.85"/>
    </edge>
    <edge id=":B2_7" function="internal">
        <lane id=":B2_7_0" index="0" speed="5.82" length="9.13" shape="463.38,452.07 465.51,453.68 467.38,453.98 469.00,452.98 470.35,450.68"/>
    </edge>
    <edge id=":B2_8" function="internal">
        <lane id=":B2_8_0" index="0" speed="13.89" length="25.32" shape="463.38,452.07 481.28,469.97"/>
        <lane id=":B2_8_1" index="1" speed="13.89" length="25.32" shape="461.12,454.33 479.02,472.23"/>
        <lane id=":B2_8_2" index="2" speed="13.89" length="25.32" shape="458.85,456.59 476.76,474.49"/>
    </edge>
    <edge id=":B2_11" function="internal">
        <lane id=":B2_11_0" index="0" speed="9.53" length="26.75" shape="458.85,456.59 463.73,462.82 465.46,468.68 463.56,473.83 457.55,477.89"/>
    </edge>
    <edge id=":B2_12" function="internal">
        <lane id=":B2_12_0" index="0" speed="6.09" length="10.11" shape="453.88,469.02 456.12,467.61 456.95,465.82 456.35,463.66 454.33,461.12"/>
    </edge>
    <edge id=":B2_13" function="internal">
        <lane id=":B2_13_0" index="0" speed="13.89" length="26.55" shape="453.88,469.02 460.68,465.64 466.18,461.66 470.39,457.08 473.30,451.90"/>
    </edge>
    <edge id=":B2_14" function="internal">
        <lane id=":B2_14_0" index="0" speed="13.89" length="29.06" shape="455.10,471.98 462.47,468.30 468.45,463.93 473.05,458.87 476.26,453.13"/>
    </edge>
    <edge id=":B2_15" function="internal">
        <lane id=":B2_15_0" index="0" speed="11.56" length="5.82" shape="456.33,474.94 461.84,473.06"/>
    </edge>
    <edge id=":B2_16" function="internal">
        <lane id=":B2_16_0" index="0" speed="11.56" length="15.69" shape="461.84,473.06 463.14,472.62 468.81,471.77 473.35,472.40 476.76,474.49"/>
    </edge>
    <edge id=":B3_0" function="internal">
        <lane id=":B3_0_0" index="0" speed="7.64" length="8.99" shape="392.00,506.95 391.71,504.61 390.83,502.66 389.37,501.11 387.32,499.94"/>
    </edge>
    <edge id=":B3_1" function="internal">
        <lane id=":B3_1_0" index="0" speed="13.89" length="23.72" shape="392.00,506.95 393.00,499.14 395.20,493.08 397.40,488.28 398.40,484.28"/>
    </edge>
    <edge id=":B3_2" function="internal">
        <lane id=":B3_2_0" index="0" speed="11.56" length="6.46" shape="395.20,506.95 396.41,502.72 397.59,501.02"/>
    </edge>
    <edge id=":B3_3" function="internal">
        <lane id=":B3_3_0" index="0" speed="10.56" length="3.25" shape="398.40,506.95 399.37,503.85"/>
    </edge>
    <edge id=":B3_15" function="internal">
        <lane id=":B3_15_0" index="0" speed="11.56" length="15.07" shape="397.59,501.02 399.57,498.16 403.92,494.05 408.73,491.19"/>
    </edge>
    <edge id=":B3_16" function="internal">
        <lane id=":B3_16_0" index="0" speed="10.56" length="14.60" shape="399.37,503.85 399.46,503.57 402.19,499.87 405.91,496.51 409.96,494.14"/>
    </edge>
    <edge id=":B3_4" function="internal">
        <lane id=":B3_4_0" index="0" speed="9.57" length="14.52" shape="411.18,497.10 406.99,499.20 404.00,501.55 402.20,504.13 401.60,506.95"/>
    </edge>
    <edge id=":B3_5" function="internal">
        <lane id=":B3_5_0" index="0" speed="13.89" length="23.17" shape="411.18,497.10 406.99,498.43 401.59,499.20 395.33,498.89 388.54,496.99"/>
    </edge>
    <edge id=":B3_6" function="internal">
        <lane id=":B3_6_0" index="0" speed="8.87" length="22.95" shape="411.18,497.10 405.59,498.28 401.60,496.54 399.20,491.88 398.40,484.28"/>
    </edge>
    <edge id=":B3_7" function="internal">
        <lane id=":B3_7_0" index="0" speed="5.82" length="9.13" shape="401.60,484.28 401.97,486.93 403.08,488.47 404.92,488.90 407.51,488.23"/>
    </edge>
    <edge id=":B3_8" function="internal">
        <lane id=":B3_8_0" index="0" speed="13.89" length="22.67" shape="401.60,484.28 401.60,506.95"/>
    </edge>
    <edge id=":B3_9" function="internal">
        <lane id=":B3_9_0" index="0" speed="8.36" length="20.26" shape="401.60,484.28 400.35,489.16 397.17,493.78 392.95,496.84 388.54,496.99"/>
    </edge>
    <edge id=":B3_10" function="internal">
        <lane id=":B3_10_0" index="0" speed="5.88" length="9.35" shape="392.22,488.12 394.92,488.84 396.85,488.44 398.01,486.92 398.40,484.28"/>
    </edge>
    <edge id=":B3_11" function="internal">
        <lane id=":B3_11_0" index="0" speed="13.13" length="15.98" shape="392.22,488.12 396.59,489.78 399.86,490.37 403.13,489.86 407.51,488.23"/>
    </edge>
    <edge id=":B3_12" function="internal">
        <lane id=":B3_12_0" index="0" speed="13.89" length="18.54" shape="390.99,491.07 396.07,493.00 399.86,493.68 403.66,493.08 408.73,491.19"/>
    </edge>
    <edge id=":B3_13" function="internal">
        <lane id=":B3_13_0" index="0" speed="13.89" length="21.10" shape="389.77,494.03 395.54,496.22 399.86,496.98 404.18,496.30 409.96,494.14"/>
    </edge>
    <edge id=":B3_14" function="internal">
        <lane id=":B3_14_0" index="0" speed="10.76" length="18.57" shape="389.77,494.03 394.94,496.67 398.64,499.71 400.86,503.14 401.60,506.95"/>
    </edge>
    <edge id=":B4_0" function="internal">
        <lane id=":B4_0_0" index="0" speed="10.72" length="18.41" shape="341.22,480.85 334.87,478.53 329.82,477.39 326.07,477.43 323.63,478.63"/>
    </edge>
    <edge id=":B4_1" function="internal">
        <lane id=":B4_1_0" index="0" speed="13.89" length="27.52" shape="341.22,480.85 334.10,477.32 328.36,473.21 323.99,468.50 320.98,463.20"/>
    </edge>
    <edge id=":B4_2" function="internal">
        <lane id=":B4_2_0" index="0" speed="13.89" length="25.01" shape="342.45,477.89 335.90,474.66 330.63,470.94 326.64,466.71 323.94,461.98"/>
    </edge>
    <edge id=":B4_3" function="internal">
        <lane id=":B4_3_0" index="0" speed="9.45" length="26.27" shape="342.45,477.89 336.31,474.14 333.90,469.49 335.19,463.96 340.21,457.53"/>
    </edge>
    <edge id=":B4_4" function="internal">
        <lane id=":B4_4_0" index="0" speed="5.82" length="9.13" shape="344.73,462.05 343.12,464.19 342.82,466.06 343.82,467.67 346.12,469.02"/>
    </edge>
    <edge id=":B4_5" function="internal">
        <lane id=":B4_5_0" index="0" speed="13.89" length="26.86" shape="344.73,462.05 338.95,467.13 332.86,471.67 327.43,475.54 323.63,478.63"/>
    </edge>
    <edge id=":B4_6" function="internal">
        <lane id=":B4_6_0" index="0" speed="8.91" length="14.58" shape="342.47,459.79 336.16,465.08 330.97,467.21 330.25,467.03"/>
    </edge>
    <edge id=":B4_14" function="internal">
        <lane id=":B4_14_0" index="0" speed="8.91" length="8.60" shape="330.25,467.03 326.89,466.18 323.94,461.98"/>
    </edge>
    <edge id=":B4_7" function="internal">
        <lane id=":B4_7_0" index="0" speed="6.78" length="12.87" shape="329.85,459.53 331.42,461.62 333.67,461.98 336.60,460.62 340.21,457.53"/>
    </edge>
    <edge id=":B4_8" function="internal">
        <lane id=":B4_8_0" index="0" speed="13.89" length="20.00" shape="329.85,459.53 331.96,463.12 335.17,466.40 339.48,469.35 344.90,471.98"/>
    </edge>
    <edge id=":B4_9" function="internal">
        <lane id=":B4_9_0" index="0" speed="13.89" length="22.50" shape="326.90,460.75 329.30,464.91 332.90,468.67 337.69,472.01 343.67,474.94"/>
    </edge>
    <edge id=":B4_10" function="internal">
        <lane id=":B4_10_0" index="0" speed="10.99" length="19.38" shape="326.90,460.75 328.30,465.75 328.22,470.39 326.66,474.68 323.63,478.63"/>
    </edge>
    <edge id=":B4_11" function="internal">
        <lane id=":B4_11_0" index="0" speed="8.67" length="11.79" shape="319.11,474.11 320.92,471.73 321.84,469.12 321.86,466.28 320.98,463.20"/>
    </edge>
    <edge id=":B4_12" function="internal">
        <lane id=":B4_12_0" index="0" speed="13.89" length="26.86" shape="319.11,474.11 324.89,469.03 330.98,464.49 336.41,460.62 340.21,457.53"/>
    </edge>
    <edge id=":B4_13" function="internal">
        <lane id=":B4_13_0" index="0" speed="12.11" length="8.23" shape="321.37,476.37 325.59,473.45 328.60,472.74"/>
    </edge>
    <edge id=":B4_15" function="internal">
        <lane id=":B4_15_0" index="0" speed="12.11" length="15.49" shape="328.60,472.74 330.72,472.24 336.74,472.73 343.67,474.94"/>
    </edge>
    <edge id=":B5_0" function="internal">
        <lane id=":B5_0_0" index="0" speed="8.26" length="10.64" shape="300.76,414.38 299.29,411.59 297.51,409.60 295.43,408.40 293.05,408.00"/>
    </edge>
    <edge id=":B5_1" function="internal">
        <lane id=":B5_1_0" index="0" speed="13.89" length="29.52" shape="300.76,414.38 298.53,407.19 297.78,400.00 298.53,392.81 300.76,385.62"/>
    </edge>
    <edge id=":B5_2" function="internal">
        <lane id=":B5_2_0" index="0" speed="13.89" length="27.00" shape="303.72,413.16 301.67,406.58 300.99,400.00 301.67,393.42 303.72,386.84"/>
    </edge>
    <edge id=":B5_3" function="internal">
        <lane id=":B5_3_0" index="0" speed="8.84" length="22.82" shape="303.72,413.16 302.04,406.70 303.13,402.09 306.97,399.32 313.58,398.40"/>
    </edge>
    <edge id=":B5_4" function="internal">
        <lane id=":B5_4_0" index="0" speed="5.82" length="9.13" shape="313.58,404.80 310.93,405.17 309.39,406.28 308.96,408.12 309.63,410.71"/>
    </edge>
    <edge id=":B5_5" function="internal">
        <lane id=":B5_5_0" index="0" speed="13.89" length="20.53" shape="313.58,404.80 293.05,404.80"/>
        <lane id=":B5_5_1" index="1" speed="13.89" length="20.53" shape="313.58,401.60 293.05,401.60"/>
    </edge>
    <edge id=":B5_7" function="internal">
        <lane id=":B5_7_0" index="0" speed="8.84" length="10.17" shape="313.58,401.60 306.97,400.68 304.13,398.63"/>
    </edge>
    <edge id=":B5_15" function="internal">
        <lane id=":B5_15_0" index="0" speed="8.84" length="12.64" shape="304.13,398.63 303.13,397.91 302.04,393.30 303.72,386.84"/>
    </edge>
    <edge id=":B5_8" function="internal">
        <lane id=":B5_8_0" index="0" speed="5.82" length="9.13" shape="309.63,389.29 308.96,391.88 309.39,393.72 310.93,394.83 313.58,395.20"/>
    </edge>
    <edge id=":B5_9" function="internal">
        <lane id=":B5_9_0" index="0" speed="13.89" length="23.69" shape="309.63,389.29 307.02,395.43 305.28,400.61 304.98,405.80 306.67,411.93"/>
    </edge>
    <edge id=":B5_10" function="internal">
        <lane id=":B5_10_0" index="0" speed="11.23" length="20.27" shape="306.67,388.07 303.72,393.99 300.47,398.22 296.91,400.75 293.05,401.60"/>
    </edge>
    <edge id=":B5_11" function="internal">
        <lane id=":B5_11_0" index="0" speed="8.26" length="10.64" shape="293.05,392.00 295.43,391.60 297.51,390.40 299.29,388.41 300.76,385.62"/>
    </edge>
    <edge id=":B5_12" function="internal">
        <lane id=":B5_12_0" index="0" speed="13.89" length="20.85" shape="293.05,392.00 299.23,392.50 303.46,393.60 307.61,394.70 313.58,395.20"/>
        <lane id=":B5_12_1" index="1" speed="13.89" length="20.85" shape="293.05,395.20 299.23,395.70 303.46,396.80 307.61,397.90 313.58,398.40"/>
    </edge>
    <edge id=":B5_14" function="internal">
        <lane id=":B5_14_0" index="0" speed="11.23" length="5.25" shape="293.05,398.40 296.91,399.25 297.97,400.00"/>
    </edge>
    <edge id=":B5_16" function="internal">
        <lane id=":B5_16_0" index="0" speed="11.23" length="15.02" shape="297.97,400.00 300.47,401.78 303.72,406.01 306.67,411.93"/>
    </edge>
    <edge id=":B6_0" function="internal">
        <lane id=":B6_0_0" index="0" speed="7.04" length="13.99" shape="341.15,343.41 337.12,339.91 333.90,338.25 331.48,338.44 329.85,340.47"/>
    </edge>
    <edge id=":B6_1" function="internal">
        <lane id=":B6_1_0" index="0" speed="13.89" length="26.64" shape="341.15,343.41 322.31,324.57"/>
    </edge>
    <edge id=":B6_2" function="internal">
        <lane id=":B6_2_0" index="0" speed="9.89" length="28.93" shape="341.15,343.41 336.36,336.74 335.56,330.54 338.67,325.11 345.65,320.78"/>
    </edge>
    <edge id=":B6_3" function="internal">
        <lane id=":B6_3_0" index="0" speed="5.82" length="9.13" shape="349.32,329.65 347.02,331.00 346.02,332.62 346.32,334.49 347.93,336.62"/>
    </edge>
    <edge id=":B6_4" function="internal">
        <lane id=":B6_4_0" index="0" speed="7.49" length="15.97" shape="348.10,326.70 344.07,329.06 342.32,331.88 342.86,335.16 345.67,338.88"/>
    </edge>
    <edge id=":B6_5" function="internal">
        <lane id=":B6_5_0" index="0" speed="13.89" length="24.92" shape="348.10,326.70 339.53,330.48 333.14,333.83 328.93,336.76 326.90,339.25"/>
    </edge>
    <edge id=":B6_6" function="internal">