<?xml version="1.0" encoding="UTF-8"?>

<!-- generated on Sun Aug 22 23:05:04 2021 by Eclipse SUMO netgenerate Version 1.6.0
<configuration xmlns:xsi="http://www.w3.org/2001/XMLSchema-instance" xsi:noNamespaceSchemaLocation="http://sumo.dlr.de/xsd/netgenerateConfiguration.xsd">

    <grid_network>
        <grid value="true"/>
        <grid.number value="7"/>
        <grid.length value="100"/>
    </grid_network>

    <output>
        <output-file value="grid.net.xml"/>
    </output>

    <building_defaults>
        <default.lanenumber value="3"/>
        <default-junction-type value="traffic_light"/>
    </building_defaults>

    <junctions>
        <no-turnarounds value="true"/>
    </junctions>

</configuration>
-->

<net version="1.6" junctionCornerDetail="5" limitTurnSpeed="5.50" xmlns:xsi="http://www.w3.org/2001/XMLSchema-instance" xsi:noNamespaceSchemaLocation="http://sumo.dlr.de/xsd/net_file.xsd">

    <location netOffset="0.00,0.00" convBoundary="0.00,0.00,600.00,600.00" origBoundary="0.00,0.00,600.00,600.00" projParameter="!"/>

    <edge id=":A0_0" function="internal">
        <lane id=":A0_0_0" index="0" speed="11.12" length="28.38" shape="-8.00,9.60 -6.90,1.90 -3.60,-3.60 1.90,-6.90 9.60,-8.00"/>
    </edge>
    <edge id=":A0_1" function="internal">
        <lane id=":A0_1_0" index="0" speed="10.10" length="23.22" shape="-4.80,9.60 -3.90,3.30 -1.20,-1.20 3.30,-3.90 9.60,-4.80"/>
    </edge>
    <edge id=":A0_2" function="internal">
        <lane id=":A0_2_0" index="0" speed="8.96" length="18.06" shape="-1.60,9.60 -0.90,4.70 1.20,1.20 4.70,-0.90 9.60,-1.60"/>
    </edge>
    <edge id=":A0_3" function="internal">
        <lane id=":A0_3_0" index="0" speed="3.90" length="2.58" shape="9.60,8.00 8.90,8.10 8.40,8.40 8.10,8.90 8.00,9.60"/>
    </edge>
    <edge id=":A0_4" function="internal">
        <lane id=":A0_4_0" index="0" speed="6.08" length="7.74" shape="9.60,4.80 7.50,5.10 6.00,6.00 5.10,7.50 4.80,9.60"/>
    </edge>
    <edge id=":A0_5" function="internal">
        <lane id=":A0_5_0" index="0" speed="7.66" length="12.90" shape="9.60,1.60 6.10,2.10 3.60,3.60 2.10,6.10 1.60,9.60"/>
    </edge>
    <edge id=":A1_0" function="internal">
        <lane id=":A1_0_0" index="0" speed="13.89" length="27.20" shape="-8.00,113.60 -8.00,86.40"/>
        <lane id=":A1_0_1" index="1" speed="13.89" length="27.20" shape="-4.80,113.60 -4.80,86.40"/>
        <lane id=":A1_0_2" index="2" speed="13.89" length="27.20" shape="-1.60,113.60 -1.60,86.40"/>
    </edge>
    <edge id=":A1_3" function="internal">
        <lane id=":A1_3_0" index="0" speed="10.88" length="9.57" shape="-1.60,113.60 -0.65,105.55 -0.00,104.24"/>
    </edge>
    <edge id=":A1_4" function="internal">
        <lane id=":A1_4_0" index="0" speed="10.36" length="7.98" shape="-1.60,113.60 -0.65,106.95 -0.00,105.87"/>
    </edge>
    <edge id=":A1_13" function="internal">
        <lane id=":A1_13_0" index="0" speed="10.88" length="17.57" shape="-0.00,104.24 2.20,99.80 6.95,96.35 13.60,95.20"/>
    </edge>
    <edge id=":A1_14" function="internal">
        <lane id=":A1_14_0" index="0" speed="10.36" length="16.53" shape="-0.00,105.87 2.20,102.20 6.95,99.35 13.60,98.40"/>
    </edge>
    <edge id=":A1_5" function="internal">
        <lane id=":A1_5_0" index="0" speed="6.51" length="9.03" shape="13.60,108.00 11.15,108.35 9.40,109.40 8.35,111.15 8.00,113.60"/>
    </edge>
    <edge id=":A1_6" function="internal">
        <lane id=":A1_6_0" index="0" speed="8.00" length="14.19" shape="13.60,104.80 9.75,105.35 7.00,107.00 5.35,109.75 4.80,113.60"/>
    </edge>
    <edge id=":A1_7" function="internal">
        <lane id=":A1_7_0" index="0" speed="10.88" length="27.14" shape="13.60,101.60 5.55,100.65 -0.20,97.80 -3.65,93.05 -4.80,86.40"/>
    </edge>
    <edge id=":A1_8" function="internal">
        <lane id=":A1_8_0" index="0" speed="10.36" length="24.51" shape="13.60,101.60 6.95,100.65 2.20,97.80 -0.65,93.05 -1.60,86.40"/>
    </edge>
    <edge id=":A1_9" function="internal">
        <lane id=":A1_9_0" index="0" speed="6.51" length="9.03" shape="8.00,86.40 8.35,88.85 9.40,90.60 11.15,91.65 13.60,92.00"/>
    </edge>
    <edge id=":A1_10" function="internal">
        <lane id=":A1_10_0" index="0" speed="13.89" length="27.20" shape="8.00,86.40 8.00,113.60"/>
        <lane id=":A1_10_1" index="1" speed="13.89" length="27.20" shape="4.80,86.40 4.80,113.60"/>
        <lane id=":A1_10_2" index="2" speed="13.89" length="27.20" shape="1.60,86.40 1.60,113.60"/>
    </edge>
    <edge id=":A2_0" function="internal">
        <lane id=":A2_0_0" index="0" speed="13.89" length="27.20" shape="-8.00,213.60 -8.00,186.40"/>
        <lane id=":A2_0_1" index="1" speed="13.89" length="27.20" shape="-4.80,213.60 -4.80,186.40"/>
        <lane id=":A2_0_2" index="2" speed="13.89" length="27.20" shape="-1.60,213.60 -1.60,186.40"/>
    </edge>
    <edge id=":A2_3" function="internal">
        <lane id=":A2_3_0" index="0" speed="10.88" length="9.57" shape="-1.60,213.60 -0.65,205.55 -0.00,204.24"/>
    </edge>
    <edge id=":A2_4" function="internal">
        <lane id=":A2_4_0" index="0" speed="10.36" length="7.98" shape="-1.60,213.60 -0.65,206.95 0.00,205.87"/>
    </edge>
    <edge id=":A2_13" function="internal">
        <lane id=":A2_13_0" index="0" speed="10.88" length="17.57" shape="-0.00,204.24 2.20,199.80 6.95,196.35 13.60,195.20"/>
    </edge>
    <edge id=":A2_14" function="internal">
        <lane id=":A2_14_0" index="0" speed="10.36" length="16.53" shape="0.00,205.87 2.20,202.20 6.95,199.35 13.60,198.40"/>
    </edge>
    <edge id=":A2_5" function="internal">
        <lane id=":A2_5_0" index="0" speed="6.51" length="9.03" shape="13.60,208.00 11.15,208.35 9.40,209.40 8.35,211.15 8.00,213.60"/>
    </edge>
    <edge id=":A2_6" function="internal">
        <lane id=":A2_6_0" index="0" speed="8.00" length="14.19" shape="13.60,204.80 9.75,205.35 7.00,207.00 5.35,209.75 4.80,213.60"/>
    </edge>
    <edge id=":A2_7" function="internal">
        <lane id=":A2_7_0" index="0" speed="10.88" length="27.14" shape="13.60,201.60 5.55,200.65 -0.20,197.80 -3.65,193.05 -4.80,186.40"/>
    </edge>
    <edge id=":A2_8" function="internal">
        <lane id=":A2_8_0" index="0" speed="10.36" length="24.51" shape="13.60,201.60 6.95,200.65 2.20,197.80 -0.65,193.05 -1.60,186.40"/>
    </edge>
    <edge id=":A2_9" function="internal">
        <lane id=":A2_9_0" index="0" speed="6.51" length="9.03" shape="8.00,186.40 8.35,188.85 9.40,190.60 11.15,191.65 13.60,192.00"/>
    </edge>
    <edge id=":A2_10" function="internal">
        <lane id=":A2_10_0" index="0" speed="13.89" length="27.20" shape="8.00,186.40 8.00,213.60"/>
        <lane id=":A2_10_1" index="1" speed="13.89" length="27.20" shape="4.80,186.40 4.80,213.60"/>
        <lane id=":A2_10_2" index="2" speed="13.89" length="27.20" shape="1.60,186.40 1.60,213.60"/>
    </edge>
    <edge id=":A3_0" function="internal">
        <lane id=":A3_0_0" index="0" speed="13.89" length="27.20" shape="-8.00,313.60 -8.00,286.40"/>
        <lane id=":A3_0_1" index="1" speed="13.89" length="27.20" shape="-4.80,313.60 -4.80,286.40"/>
        <lane id=":A3_0_2" index="2" speed="13.89" length="27.20" shape="-1.60,313.60 -1.60,286.40"/>
    </edge>
    <edge id=":A3_3" function="internal">
        <lane id=":A3_3_0" index="0" speed="10.88" length="9.57" shape="-1.60,313.60 -0.65,305.55 0.00,304.24"/>
    </edge>
    <edge id=":A3_4" function="internal">
        <lane id=":A3_4_0" index="0" speed="10.36" length="7.98" shape="-1.60,313.60 -0.65,306.95 -0.00,305.87"/>
    </edge>
    <edge id=":A3_13" function="internal">
        <lane id=":A3_13_0" index="0" speed="10.88" length="17.57" shape="0.00,304.24 2.20,299.80 6.95,296.35 13.60,295.20"/>
    </edge>
    <edge id=":A3_14" function="internal">
        <lane id=":A3_14_0" index="0" speed="10.36" length="16.53" shape="-0.00,305.87 2.20,302.20 6.95,299.35 13.60,298.40"/>
    </edge>
    <edge id=":A3_5" function="internal">
        <lane id=":A3_5_0" index="0" speed="6.51" length="9.03" shape="13.60,308.00 11.15,308.35 9.40,309.40 8.35,311.15 8.00,313.60"/>
    </edge>
    <edge id=":A3_6" function="internal">
        <lane id=":A3_6_0" index="0" speed="8.00" length="14.19" shape="13.60,304.80 9.75,305.35 7.00,307.00 5.35,309.75 4.80,313.60"/>
    </edge>
    <edge id=":A3_7" function="internal">
        <lane id=":A3_7_0" index="0" speed="10.88" length="27.14" shape="13.60,301.60 5.55,300.65 -0.20,297.80 -3.65,293.05 -4.80,286.40"/>
    </edge>
    <edge id=":A3_8" function="internal">
        <lane id=":A3_8_0" index="0" speed="10.36" length="24.51" shape="13.60,301.60 6.95,300.65 2.20,297.80 -0.65,293.05 -1.60,286.40"/>
    </edge>
    <edge id=":A3_9" function="internal">
        <lane id=":A3_9_0" index="0" speed="6.51" length="9.03" shape="8.00,286.40 8.35,288.85 9.40,290.60 11.15,291.65 13.60,292.00"/>
    </edge>
    <edge id=":A3_10" function="internal">
        <lane id=":A3_10_0" index="0" speed="13.89" length="27.20" shape="8.00,286.40 8.00,313.60"/>
        <lane id=":A3_10_1" index="1" speed="13.89" length="27.20" shape="4.80,286.40 4.80,313.60"/>
        <lane id=":A3_10_2" index="2" speed="13.89" length="27.20" shape="1.60,286.40 1.60,313.60"/>
    </edge>
    <edge id=":A4_0" function="internal">
        <lane id=":A4_0_0" index="0" speed="13.89" length="27.20" shape="-8.00,413.60 -8.00,386.40"/>
        <lane id=":A4_0_1" index="1" speed="13.89" length="27.20" shape="-4.80,413.60 -4.80,386.40"/>
        <lane id=":A4_0_2" index="2" speed="13.89" length="27.20" shape="-1.60,413.60 -1.60,386.40"/>
    </edge>
    <edge id=":A4_3" function="internal">
        <lane id=":A4_3_0" index="0" speed="10.88" length="9.57" shape="-1.60,413.60 -0.65,405.55 0.00,404.24"/>
    </edge>
    <edge id=":A4_4" function="internal">
        <lane id=":A4_4_0" index="0" speed="10.36" length="7.98" shape="-1.60,413.60 -0.65,406.95 0.00,405.87"/>
    </edge>
    <edge id=":A4_13" function="internal">
        <lane id=":A4_13_0" index="0" speed="10.88" length="17.57" shape="0.00,404.24 2.20,399.80 6.95,396.35 13.60,395.20"/>
    </edge>
    <edge id=":A4_14" function="internal">
        <lane id=":A4_14_0" index="0" speed="10.36" length="16.53" shape="0.00,405.87 2.20,402.20 6.95,399.35 13.60,398.40"/>
    </edge>
    <edge id=":A4_5" function="internal">
        <lane id=":A4_5_0" index="0" speed="6.51" length="9.03" shape="13.60,408.00 11.15,408.35 9.40,409.40 8.35,411.15 8.00,413.60"/>
    </edge>
    <edge id=":A4_6" function="internal">
        <lane id=":A4_6_0" index="0" speed="8.00" length="14.19" shape="13.60,404.80 9.75,405.35 7.00,407.00 5.35,409.75 4.80,413.60"/>
    </edge>
    <edge id=":A4_7" function="internal">
        <lane id=":A4_7_0" index="0" speed="10.88" length="27.14" shape="13.60,401.60 5.55,400.65 -0.20,397.80 -3.65,393.05 -4.80,386.40"/>
    </edge>
    <edge id=":A4_8" function="internal">
        <lane id=":A4_8_0" index="0" speed="10.36" length="24.51" shape="13.60,401.60 6.95,400.65 2.20,397.80 -0.65,393.05 -1.60,386.40"/>
    </edge>
    <edge id=":A4_9" function="internal">
        <lane id=":A4_9_0" index="0" speed="6.51" length="9.03" shape="8.00,386.40 8.35,388.85 9.40,390.60 11.15,391.65 13.60,392.00"/>
    </edge>
    <edge id=":A4_10" function="internal">
        <lane id=":A4_10_0" index="0" speed="13.89" length="27.20" shape="8.00,386.40 8.00,413.60"/>
        <lane id=":A4_10_1" index="1" speed="13.89" length="27.20" shape="4.80,386.40 4.80,413.60"/>
        <lane id=":A4_10_2" index="2" speed="13.89" length="27.20" shape="1.60,386.40 1.60,413.60"/>
    </edge>
    <edge id=":A5_0" function="internal">
        <lane id=":A5_0_0" index="0" speed="13.89" length="27.20" shape="-8.00,513.60 -8.00,486.40"/>
        <lane id=":A5_0_1" index="1" speed="13.89" length="27.20" shape="-4.80,513.60 -4.80,486.40"/>
        <lane id=":A5_0_2" index="2" speed="13.89" length="27.20" shape="-1.60,513.60 -1.60,486.40"/>
    </edge>
    <edge id=":A5_3" function="internal">
        <lane id=":A5_3_0" index="0" speed="10.88" length="9.57" shape="-1.60,513.60 -0.65,505.55 0.00,504.24"/>
    </edge>
    <edge id=":A5_4" function="internal">
        <lane id=":A5_4_0" index="0" speed="10.36" length="7.98" shape="-1.60,513.60 -0.65,506.95 -0.00,505.87"/>
    </edge>
    <edge id=":A5_13" function="internal">
        <lane id=":A5_13_0" index="0" speed="10.88" length="17.57" shape="0.00,504.24 2.20,499.80 6.95,496.35 13.60,495.20"/>
    </edge>
    <edge id=":A5_14" function="internal">
        <lane id=":A5_14_0" index="0" speed="10.36" length="16.53" shape="-0.00,505.87 2.20,502.20 6.95,499.35 13.60,498.40"/>
    </edge>
    <edge id=":A5_5" function="internal">
        <lane id=":A5_5_0" index="0" speed="6.51" length="9.03" shape="13.60,508.00 11.15,508.35 9.40,509.40 8.35,511.15 8.00,513.60"/>
    </edge>
    <edge id=":A5_6" function="internal">
        <lane id=":A5_6_0" index="0" speed="8.00" length="14.19" shape="13.60,504.80 9.75,505.35 7.00,507.00 5.35,509.75 4.80,513.60"/>
    </edge>
    <edge id=":A5_7" function="internal">
        <lane id=":A5_7_0" index="0" speed="10.88" length="27.14" shape="13.60,501.60 5.55,500.65 -0.20,497.80 -3.65,493.05 -4.80,486.40"/>
    </edge>
    <edge id=":A5_8" function="internal">
        <lane id=":A5_8_0" index="0" speed="10.36" length="24.51" shape="13.60,501.60 6.95,500.65 2.20,497.80 -0.65,493.05 -1.60,486.40"/>
    </edge>
    <edge id=":A5_9" function="internal">
        <lane id=":A5_9_0" index="0" speed="6.51" length="9.03" shape="8.00,486.40 8.35,488.85 9.40,490.60 11.15,491.65 13.60,492.00"/>
    </edge>
    <edge id=":A5_10" function="internal">
        <lane id=":A5_10_0" index="0" speed="13.89" length="27.20" shape="8.00,486.40 8.00,513.60"/>
        <lane id=":A5_10_1" index="1" speed="13.89" length="27.20" shape="4.80,486.40 4.80,513.60"/>
        <lane id=":A5_10_2" index="2" speed="13.89" length="27.20" shape="1.60,486.40 1.60,513.60"/>
    </edge>
    <edge id=":A6_0" function="internal">
        <lane id=":A6_0_0" index="0" speed="11.12" length="28.38" shape="9.60,608.00 1.90,606.90 -3.60,603.60 -6.90,598.10 -8.00,590.40"/>
    </edge>
    <edge id=":A6_1" function="internal">
        <lane id=":A6_1_0" index="0" speed="10.10" length="23.22" shape="9.60,604.80 3.30,603.90 -1.20,601.20 -3.90,596.70 -4.80,590.40"/>
    </edge>
    <edge id=":A6_2" function="internal">
        <lane id=":A6_2_0" index="0" speed="8.96" length="18.06" shape="9.60,601.60 4.70,600.90 1.20,598.80 -0.90,595.30 -1.60,590.40"/>
    </edge>
    <edge id=":A6_3" function="internal">
        <lane id=":A6_3_0" index="0" speed="3.90" length="2.58" shape="8.00,590.40 8.10,591.10 8.40,591.60 8.90,591.90 9.60,592.00"/>
    </edge>
    <edge id=":A6_4" function="internal">
        <lane id=":A6_4_0" index="0" speed="6.08" length="7.74" shape="4.80,590.40 5.10,592.50 6.00,594.00 7.50,594.90 9.60,595.20"/>
    </edge>
    <edge id=":A6_5" function="internal">
        <lane id=":A6_5_0" index="0" speed="7.66" length="12.90" shape="1.60,590.40 2.10,593.90 3.60,596.40 6.10,597.90 9.60,598.40"/>
    </edge>
    <edge id=":B0_0" function="internal">
        <lane id=":B0_0_0" index="0" speed="6.51" length="9.03" shape="92.00,13.60 91.65,11.15 90.60,9.40 88.85,8.35 86.40,8.00"/>
    </edge>
    <edge id=":B0_1" function="internal">
        <lane id=":B0_1_0" index="0" speed="8.00" length="14.19" shape="95.20,13.60 94.65,9.75 93.00,7.00 90.25,5.35 86.40,4.80"/>
    </edge>
    <edge id=":B0_2" function="internal">
        <lane id=":B0_2_0" index="0" speed="10.88" length="27.14" shape="98.40,13.60 99.35,5.55 102.20,-0.20 106.95,-3.65 113.60,-4.80"/>
    </edge>
    <edge id=":B0_3" function="internal">
        <lane id=":B0_3_0" index="0" speed="10.36" length="24.51" shape="98.40,13.60 99.35,6.95 102.20,2.20 106.95,-0.65 113.60,-1.60"/>
    </edge>
    <edge id=":B0_4" function="internal">
        <lane id=":B0_4_0" index="0" speed="6.51" length="9.03" shape="113.60,8.00 111.15,8.35 109.40,9.40 108.35,11.15 108.00,13.60"/>
    </edge>
    <edge id=":B0_5" function="internal">
        <lane id=":B0_5_0" index="0" speed="13.89" length="27.20" shape="113.60,8.00 86.40,8.00"/>
        <lane id=":B0_5_1" index="1" speed="13.89" length="27.20" shape="113.60,4.80 86.40,4.80"/>
        <lane id=":B0_5_2" index="2" speed="13.89" length="27.20" shape="113.60,1.60 86.40,1.60"/>
    </edge>
    <edge id=":B0_8" function="internal">
        <lane id=":B0_8_0" index="0" speed="13.89" length="27.20" shape="86.40,-8.00 113.60,-8.00"/>
        <lane id=":B0_8_1" index="1" speed="13.89" length="27.20" shape="86.40,-4.80 113.60,-4.80"/>
        <lane id=":B0_8_2" index="2" speed="13.89" length="27.20" shape="86.40,-1.60 113.60,-1.60"/>
    </edge>
    <edge id=":B0_11" function="internal">
        <lane id=":B0_11_0" index="0" speed="10.88" length="9.57" shape="86.40,-1.60 94.45,-0.65 95.76,-0.00"/>
    </edge>
    <edge id=":B0_12" function="internal">
        <lane id=":B0_12_0" index="0" speed="10.36" length="7.98" shape="86.40,-1.60 93.05,-0.65 94.13,-0.00"/>
    </edge>
    <edge id=":B0_13" function="internal">
        <lane id=":B0_13_0" index="0" speed="10.88" length="17.57" shape="95.76,-0.00 100.20,2.20 103.65,6.95 104.80,13.60"/>
    </edge>
    <edge id=":B0_14" function="internal">
        <lane id=":B0_14_0" index="0" speed="10.36" length="16.53" shape="94.13,-0.00 97.80,2.20 100.65,6.95 101.60,13.60"/>
    </edge>
    <edge id=":B1_0" function="internal">
        <lane id=":B1_0_0" index="0" speed="6.51" length="9.03" shape="92.00,113.60 91.65,111.15 90.60,109.40 88.85,108.35 86.40,108.00"/>
    </edge>
    <edge id=":B1_1" function="internal">
        <lane id=":B1_1_0" index="0" speed="13.89" length="27.20" shape="92.00,113.60 92.00,86.40"/>
        <lane id=":B1_1_1" index="1" speed="13.89" length="27.20" shape="95.20,113.60 95.20,86.40"/>
        <lane id=":B1_1_2" index="2" speed="13.89" length="27.20" shape="98.40,113.60 98.40,86.40"/>
    </edge>
    <edge id=":B1_4" function="internal">
        <lane id=":B1_4_0" index="0" speed="10.36" length="7.98" shape="98.40,113.60 99.35,106.95 100.00,105.87"/>
    </edge>
    <edge id=":B1_20" function="internal">
        <lane id=":B1_20_0" index="0" speed="10.36" length="16.53" shape="100.00,105.87 102.20,102.20 106.95,99.35 113.60,98.40"/>
    </edge>
    <edge id=":B1_5" function="internal">
        <lane id=":B1_5_0" index="0" speed="6.51" length="9.03" shape="113.60,108.00 111.15,108.35 109.40,109.40 108.35,111.15 108.00,113.60"/>
    </edge>
    <edge id=":B1_6" function="internal">
        <lane id=":B1_6_0" index="0" speed="13.89" length="27.20" shape="113.60,108.00 86.40,108.00"/>
        <lane id=":B1_6_1" index="1" speed="13.89" length="27.20" shape="113.60,104.80 86.40,104.80"/>
        <lane id=":B1_6_2" index="2" speed="13.89" length="27.20" shape="113.60,101.60 86.40,101.60"/>
    </edge>
    <edge id=":B1_9" function="internal">
        <lane id=":B1_9_0" index="0" speed="10.36" length="7.98" shape="113.60,101.60 106.95,100.65 105.87,100.00"/>
    </edge>
    <edge id=":B1_21" function="internal">
        <lane id=":B1_21_0" index="0" speed="10.36" length="16.53" shape="105.87,100.00 102.20,97.80 99.35,93.05 98.40,86.40"/>
    </edge>
    <edge id=":B1_10" function="internal">
        <lane id=":B1_10_0" index="0" speed="6.51" length="9.03" shape="108.00,86.40 108.35,88.85 109.40,90.60 111.15,91.65 113.60,92.00"/>
    </edge>
    <edge id=":B1_11" function="internal">
        <lane id=":B1_11_0" index="0" speed="13.89" length="27.20" shape="108.00,86.40 108.00,113.60"/>
        <lane id=":B1_11_1" index="1" speed="13.89" length="27.20" shape="104.80,86.40 104.80,113.60"/>
        <lane id=":B1_11_2" index="2" speed="13.89" length="27.20" shape="101.60,86.40 101.60,113.60"/>
    </edge>
    <edge id=":B1_14" function="internal">
        <lane id=":B1_14_0" index="0" speed="10.36" length="7.98" shape="101.60,86.40 100.65,93.05 100.00,94.13"/>
    </edge>
    <edge id=":B1_22" function="internal">
        <lane id=":B1_22_0" index="0" speed="10.36" length="16.53" shape="100.00,94.13 97.80,97.80 93.05,100.65 86.40,101.60"/>
    </edge>
    <edge id=":B1_15" function="internal">
        <lane id=":B1_15_0" index="0" speed="6.51" length="9.03" shape="86.40,92.00 88.85,91.65 90.60,90.60 91.65,88.85 92.00,86.40"/>
    </edge>
    <edge id=":B1_16" function="internal">
        <lane id=":B1_16_0" index="0" speed="13.89" length="27.20" shape="86.40,92.00 113.60,92.00"/>
        <lane id=":B1_16_1" index="1" speed="13.89" length="27.20" shape="86.40,95.20 113.60,95.20"/>
        <lane id=":B1_16_2" index="2" speed="13.89" length="27.20" shape="86.40,98.40 113.60,98.40"/>
    </edge>
    <edge id=":B1_19" function="internal">
        <lane id=":B1_19_0" index="0" speed="10.36" length="7.98" shape="86.40,98.40 93.05,99.35 94.13,100.00"/>
    </edge>
    <edge id=":B1_23" function="internal">
        <lane id=":B1_23_0" index="0" speed="10.36" length="16.53" shape="94.13,100.00 97.80,102.20 100.65,106.95 101.60,113.60"/>
    </edge>
    <edge id=":B2_0" function="internal">
        <lane id=":B2_0_0" index="0" speed="6.51" length="9.03" shape="92.00,213.60 91.65,211.15 90.60,209.40 88.85,208.35 86.40,208.00"/>
    </edge>
    <edge id=":B2_1" function="internal">
        <lane id=":B2_1_0" index="0" speed="13.89" length="27.20" shape="92.00,213.60 92.00,186.40"/>
        <lane id=":B2_1_1" index="1" speed="13.89" length="27.20" shape="95.20,213.60 95.20,186.40"/>
        <lane id=":B2_1_2" index="2" speed="13.89" length="27.20" shape="98.40,213.60 98.40,186.40"/>
    </edge>
    <edge id=":B2_4" function="internal">
        <lane id=":B2_4_0" index="0" speed="10.36" length="7.98" shape="98.40,213.60 99.35,206.95 100.00,205.87"/>
    </edge>
    <edge id=":B2_20" function="internal">
        <lane id=":B2_20_0" index="0" speed="10.36" length="16.53" shape="100.00,205.87 102.20,202.20 106.95,199.35 113.60,198.40"/>
    </edge>
    <edge id=":B2_5" function="internal">
        <lane id=":B2_5_0" index="0" speed="6.51" length="9.03" shape="113.60,208.00 111.15,208.35 109.40,209.40 108.35,211.15 108.00,213.60"/>
    </edge>
    <edge id=":B2_6" function="internal">
        <lane id=":B2_6_0" index="0" speed="13.89" length="27.20" shape="113.60,208.00 86.40,208.00"/>
        <lane id=":B2_6_1" index="1" speed="13.89" length="27.20" shape="113.60,204.80 86.40,204.80"/>
        <lane id=":B2_6_2" index="2" speed="13.89" length="27.20" shape="113.60,201.60 86.40,201.60"/>
    </edge>
    <edge id=":B2_9" function="internal">
        <lane id=":B2_9_0" index="0" speed="10.36" length="7.98" shape="113.60,201.60 106.95,200.65 105.87,200.00"/>
    </edge>
    <edge id=":B2_21" function="internal">
        <lane id=":B2_21_0" index="0" speed="10.36" length="16.53" shape="105.87,200.00 102.20,197.80 99.35,193.05 98.40,186.40"/>
    </edge>
    <edge id=":B2_10" function="internal">
        <lane id=":B2_10_0" index="0" speed="6.51" length="9.03" shape="108.00,186.40 108.35,188.85 109.40,190.60 111.15,191.65 113.60,192.00"/>
    </edge>
    <edge id=":B2_11" function="internal">
        <lane id=":B2_11_0" index="0" speed="13.89" length="27.20" shape="108.00,186.40 108.00,213.60"/>
        <lane id=":B2_11_1" index="1" speed="13.89" length="27.20" shape="104.80,186.40 104.80,213.60"/>
        <lane id=":B2_11_2" index="2" speed="13.89" length="27.20" shape="101.60,186.40 101.60,213.60"/>
    </edge>
    <edge id=":B2_14" function="internal">
        <lane id=":B2_14_0" index="0" speed="10.36" length="7.98" shape="101.60,186.40 100.65,193.05 100.00,194.13"/>
    </edge>
    <edge id=":B2_22" function="internal">
        <lane id=":B2_22_0" index="0" speed="10.36" length="16.53" shape="100.00,194.13 97.80,197.80 93.05,200.65 86.40,201.60"/>
    </edge>
    <edge id=":B2_15" function="internal">
        <lane id=":B2_15_0" index="0" speed="6.51" length="9.03" shape="86.40,192.00 88.85,191.65 90.60,190.60 91.65,188.85 92.00,186.40"/>
    </edge>
    <edge id=":B2_16" function="internal">
        <lane id=":B2_16_0" index="0" speed="13.89" length="27.20" shape="86.40,192.00 113.60,192.00"/>
        <lane id=":B2_16_1" index="1" speed="13.89" length="27.20" shape="86.40,195.20 113.60,195.20"/>
        <lane id=":B2_16_2" index="2" speed="13.89" length="27.20" shape="86.40,198.40 113.60,198.40"/>
    </edge>
    <edge id=":B2_19" function="internal">
        <lane id=":B2_19_0" index="0" speed="10.36" length="7.98" shape="86.40,198.40 93.05,199.35 94.13,200.00"/>
    </edge>
    <edge id=":B2_23" function="internal">
        <lane id=":B2_23_0" index="0" speed="10.36" length="16.53" shape="94.13,200.00 97.80,202.20 100.65,206.95 101.60,213.60"/>
    </edge>
    <edge id=":B3_0" function="internal">
        <lane id=":B3_0_0" index="0" speed="6.51" length="9.03" shape="92.00,313.60 91.65,311.15 90.60,309.40 88.85,308.35 86.40,308.00"/>
    </edge>
    <edge id=":B3_1" function="internal">
        <lane id=":B3_1_0" index="0" speed="13.89" length="27.20" shape="92.00,313.60 92.00,286.40"/>
        <lane id=":B3_1_1" index="1" speed="13.89" length="27.20" shape="95.20,313.60 95.20,286.40"/>
        <lane id=":B3_1_2" index="2" speed="13.89" length="27.20" shape="98.40,313.60 98.40,286.40"/>
    </edge>
    <edge id=":B3_4" function="internal">
        <lane id=":B3_4_0" index="0" speed="10.36" length="7.98" shape="98.40,313.60 99.35,306.95 100.00,305.87"/>
    </edge>
    <edge id=":B3_20" function="internal">
        <lane id=":B3_20_0" index="0" speed="10.36" length="16.53" shape="100.00,305.87 102.20,302.20 106.95,299.35 113.60,298.40"/>
    </edge>
    <edge id=":B3_5" function="internal">
        <lane id=":B3_5_0" index="0" speed="6.51" length="9.03" shape="113.60,308.00 111.15,308.35 109.40,309.40 108.35,311.15 108.00,313.60"/>
    </edge>
    <edge id=":B3_6" function="internal">
        <lane id=":B3_6_0" index="0" speed="13.89" length="27.20" shape="113.60,308.00 86.40,308.00"/>
        <lane id=":B3_6_1" index="1" speed="13.89" length="27.20" shape="113.60,304.80 86.40,304.80"/>
        <lane id=":B3_6_2" index="2" speed="13.89" length="27.20" shape="113.60,301.60 86.40,301.60"/>
    </edge>
    <edge id=":B3_9" function="internal">
        <lane id=":B3_9_0" index="0" speed="10.36" length="7.98" shape="113.60,301.60 106.95,300.65 105.87,300.00"/>
    </edge>
    <edge id=":B3_21" function="internal">
        <lane id=":B3_21_0" index="0" speed="10.36" length="16.53" shape="105.87,300.00 102.20,297.80 99.35,293.05 98.40,286.40"/>
    </edge>
    <edge id=":B3_10" function="internal">
        <lane id=":B3_10_0" index="0" speed="6.51" length="9.03" shape="108.00,286.40 108.35,288.85 109.40,290.60 111.15,291.65 113.60,292.00"/>
    </edge>
    <edge id=":B3_11" function="internal">
        <lane id=":B3_11_0" index="0" speed="13.89" length="27.20" shape="108.00,286.40 108.00,313.60"/>
        <lane id=":B3_11_1" index="1" speed="13.89" length="27.20" shape="104.80,286.40 104.80,313.60"/>
        <lane id=":B3_11_2" index="2" speed="13.89" length="27.20" shape="101.60,286.40 101.60,313.60"/>
    </edge>
    <edge id=":B3_14" function="internal">
        <lane id=":B3_14_0" index="0" speed="10.36" length="7.98" shape="101.60,286.40 100.65,293.05 100.00,294.13"/>
    </edge>
    <edge id=":B3_22" function="internal">
        <lane id=":B3_22_0" index="0" speed="10.36" length="16.53" shape="100.00,294.13 97.80,297.80 93.05,300.65 86.40,301.60"/>
    </edge>
    <edge id=":B3_15" function="internal">
        <lane id=":B3_15_0" index="0" speed="6.51" length="9.03" shape="86.40,292.00 88.85,291.65 90.60,290.60 91.65,288.85 92.00,286.40"/>
    </edge>
    <edge id=":B3_16" function="internal">
        <lane id=":B3_16_0" index="0" speed="13.89" length="27.20" shape="86.40,292.00 113.60,292.00"/>
        <lane id=":B3_16_1" index="1" speed="13.89" length="27.20" shape="86.40,295.20 113.60,295.20"/>
        <lane id=":B3_16_2" index="2" speed="13.89" length="27.20" shape="86.40,298.40 113.60,298.40"/>
    </edge>
    <edge id=":B3_19" function="internal">
        <lane id=":B3_19_0" index="0" speed="10.36" length="7.98" shape="86.40,298.40 93.05,299.35 94.13,300.00"/>
    </edge>
    <edge id=":B3_23" function="internal">
        <lane id=":B3_23_0" index="0" speed="10.36" length="16.53" shape="94.13,300.00 97.80,302.20 100.65,306.95 101.60,313.60"/>
    </edge>
    <edge id=":B4_0" function="internal">
        <lane id=":B4_0_0" index="0" speed="6.51" length="9.03" shape="92.00,413.60 91.65,411.15 90.60,409.40 88.85,408.35 86.40,408.00"/>
    </edge>
    <edge id=":B4_1" function="internal">
        <lane id=":B4_1_0" index="0" speed="13.89" length="27.20" shape="92.00,413.60 92.00,386.40"/>
        <lane id=":B4_1_1" index="1" speed="13.89" length="27.20" shape="95.20,413.60 95.20,386.40"/>
        <lane id=":B4_1_2" index="2" speed="13.89" length="27.20" shape="98.40,413.60 98.40,386.40"/>
    </edge>
    <edge id=":B4_4" function="internal">
        <lane id=":B4_4_0" index="0" speed="10.36" length="7.98" shape="98.40,413.60 99.35,406.95 100.00,405.87"/>
    </edge>
    <edge id=":B4_20" function="internal">
        <lane id=":B4_20_0" index="0" speed="10.36" length="16.53" shape="100.00,405.87 102.20,402.20 106.95,399.35 113.60,398.40"/>
    </edge>
    <edge id=":B4_5" function="internal">
        <lane id=":B4_5_0" index="0" speed="6.51" length="9.03" shape="113.60,408.00 111.15,408.35 109.40,409.40 108.35,411.15 108.00,413.60"/>
    </edge>
    <edge id=":B4_6" function="internal">
        <lane id=":B4_6_0" index="0" speed="13.89" length="27.20" shape="113.60,408.00 86.40,408.00"/>
        <lane id=":B4_6_1" index="1" speed="13.89" length="27.20" shape="113.60,404.80 86.40,404.80"/>
        <lane id=":B4_6_2" index="2" speed="13.89" length="27.20" shape="113.60,401.60 86.40,401.60"/>
    </edge>
    <edge id=":B4_9" function="internal">