<?xml version="1.0" encoding="UTF-8"?>

<!-- generated on 2022-02-21 21:04:08 by Eclipse SUMO netedit Version 1.12.0
<configuration xmlns:xsi="http://www.w3.org/2001/XMLSchema-instance" xsi:noNamespaceSchemaLocation="http://sumo.dlr.de/xsd/netconvertConfiguration.xsd">

    <input>
        <sumo-net-file value="grid-5x5.net.xml"/>
    </input>

    <output>
        <output-file value="grid-5x5.net.xml"/>
    </output>

    <processing>
        <geometry.min-radius.fix.railways value="false"/>
        <geometry.max-grade.fix value="false"/>
        <offset.disable-normalization value="true"/>
        <lefthand value="false"/>
    </processing>

    <junctions>
        <no-turnarounds value="true"/>
        <junctions.corner-detail value="5"/>
        <junctions.limit-turn-speed value="5.5"/>
        <rectangular-lane-cut value="false"/>
    </junctions>

    <pedestrian>
        <walkingareas value="false"/>
    </pedestrian>

    <report>
        <aggregate-warnings value="5"/>
    </report>

</configuration>
-->

<net version="1.9" junctionCornerDetail="5" limitTurnSpeed="5.50" xmlns:xsi="http://www.w3.org/2001/XMLSchema-instance" xsi:noNamespaceSchemaLocation="http://sumo.dlr.de/xsd/net_file.xsd">

    <location netOffset="0.00,0.00" convBoundary="0.00,0.00,600.00,600.00" origBoundary="0.00,0.00,600.00,600.00" projParameter="!"/>

    <edge id=":A0_0" function="internal">
        <lane id=":A0_0_0" index="0" speed="13.89" length="14.40" shape="98.40,107.20 98.40,92.80"/>
    </edge>
    <edge id=":A0_1" function="internal">
        <lane id=":A0_1_0" index="0" speed="13.89" length="14.40" shape="107.20,101.60 92.80,101.60"/>
    </edge>
    <edge id=":A0_2" function="internal">
        <lane id=":A0_2_0" index="0" speed="13.89" length="14.40" shape="101.60,92.80 101.60,107.20"/>
    </edge>
    <edge id=":A0_3" function="internal">
        <lane id=":A0_3_0" index="0" speed="13.89" length="14.40" shape="92.80,98.40 107.20,98.40"/>
    </edge>
    <edge id=":A1_0" function="internal">
        <lane id=":A1_0_0" index="0" speed="13.89" length="20.80" shape="98.40,210.40 98.40,189.60"/>
    </edge>
    <edge id=":A1_1" function="internal">
        <lane id=":A1_1_0" index="0" speed="13.89" length="14.40" shape="107.20,204.80 92.80,204.80"/>
        <lane id=":A1_1_1" index="1" speed="13.89" length="14.40" shape="107.20,201.60 92.80,201.60"/>
    </edge>
    <edge id=":A1_3" function="internal">
        <lane id=":A1_3_0" index="0" speed="13.89" length="20.80" shape="101.60,189.60 101.60,210.40"/>
    </edge>
    <edge id=":A1_4" function="internal">
        <lane id=":A1_4_0" index="0" speed="13.89" length="14.40" shape="92.80,195.20 107.20,195.20"/>
        <lane id=":A1_4_1" index="1" speed="13.89" length="14.40" shape="92.80,198.40 107.20,198.40"/>
    </edge>
    <edge id=":A2_0" function="internal">
        <lane id=":A2_0_0" index="0" speed="13.89" length="27.20" shape="98.40,313.60 98.40,286.40"/>
    </edge>
    <edge id=":A2_1" function="internal">
        <lane id=":A2_1_0" index="0" speed="13.89" length="14.40" shape="107.20,308.00 92.80,308.00"/>
        <lane id=":A2_1_1" index="1" speed="13.89" length="14.40" shape="107.20,304.80 92.80,304.80"/>
        <lane id=":A2_1_2" index="2" speed="13.89" length="14.40" shape="107.20,301.60 92.80,301.60"/>
    </edge>
    <edge id=":A2_4" function="internal">
        <lane id=":A2_4_0" index="0" speed="13.89" length="27.20" shape="101.60,286.40 101.60,313.60"/>
    </edge>
    <edge id=":A2_5" function="internal">
        <lane id=":A2_5_0" index="0" speed="13.89" length="14.40" shape="92.80,292.00 107.20,292.00"/>
        <lane id=":A2_5_1" index="1" speed="13.89" length="14.40" shape="92.80,295.20 107.20,295.20"/>
        <lane id=":A2_5_2" index="2" speed="13.89" length="14.40" shape="92.80,298.40 107.20,298.40"/>
    </edge>
    <edge id=":A3_0" function="internal">
        <lane id=":A3_0_0" index="0" speed="13.89" length="20.80" shape="98.40,410.40 98.40,389.60"/>
    </edge>
    <edge id=":A3_1" function="internal">
        <lane id=":A3_1_0" index="0" speed="13.89" length="14.40" shape="107.20,404.80 92.80,404.80"/>
        <lane id=":A3_1_1" index="1" speed="13.89" length="14.40" shape="107.20,401.60 92.80,401.60"/>
    </edge>
    <edge id=":A3_3" function="internal">
        <lane id=":A3_3_0" index="0" speed="13.89" length="20.80" shape="101.60,389.60 101.60,410.40"/>
    </edge>
    <edge id=":A3_4" function="internal">
        <lane id=":A3_4_0" index="0" speed="13.89" length="14.40" shape="92.80,395.20 107.20,395.20"/>
        <lane id=":A3_4_1" index="1" speed="13.89" length="14.40" shape="92.80,398.40 107.20,398.40"/>
    </edge>
    <edge id=":A4_0" function="internal">
        <lane id=":A4_0_0" index="0" speed="13.89" length="14.40" shape="98.40,507.20 98.40,492.80"/>
    </edge>
    <edge id=":A4_1" function="internal">
        <lane id=":A4_1_0" index="0" speed="13.89" length="14.40" shape="107.20,501.60 92.80,501.60"/>
    </edge>
    <edge id=":A4_2" function="internal">
        <lane id=":A4_2_0" index="0" speed="13.89" length="14.40" shape="101.60,492.80 101.60,507.20"/>
    </edge>
    <edge id=":A4_3" function="internal">
        <lane id=":A4_3_0" index="0" speed="13.89" length="14.40" shape="92.80,498.40 107.20,498.40"/>
    </edge>
    <edge id=":B0_0" function="internal">
        <lane id=":B0_0_0" index="0" speed="13.89" length="14.40" shape="195.20,107.20 195.20,92.80"/>
        <lane id=":B0_0_1" index="1" speed="13.89" length="14.40" shape="198.40,107.20 198.40,92.80"/>
    </edge>
    <edge id=":B0_2" function="internal">
        <lane id=":B0_2_0" index="0" speed="13.89" length="20.80" shape="210.40,101.60 189.60,101.60"/>
    </edge>
    <edge id=":B0_3" function="internal">
        <lane id=":B0_3_0" index="0" speed="13.89" length="14.40" shape="204.80,92.80 204.80,107.20"/>
        <lane id=":B0_3_1" index="1" speed="13.89" length="14.40" shape="201.60,92.80 201.60,107.20"/>
    </edge>
    <edge id=":B0_5" function="internal">
        <lane id=":B0_5_0" index="0" speed="13.89" length="20.80" shape="189.60,98.40 210.40,98.40"/>
    </edge>
    <edge id=":B1_0" function="internal">
        <lane id=":B1_0_0" index="0" speed="13.89" length="20.80" shape="195.20,210.40 195.20,189.60"/>
        <lane id=":B1_0_1" index="1" speed="13.89" length="20.80" shape="198.40,210.40 198.40,189.60"/>
    </edge>
    <edge id=":B1_2" function="internal">
        <lane id=":B1_2_0" index="0" speed="13.89" length="20.80" shape="210.40,204.80 189.60,204.80"/>
        <lane id=":B1_2_1" index="1" speed="13.89" length="20.80" shape="210.40,201.60 189.60,201.60"/>
    </edge>
    <edge id=":B1_4" function="internal">
        <lane id=":B1_4_0" index="0" speed="13.89" length="20.80" shape="204.80,189.60 204.80,210.40"/>
        <lane id=":B1_4_1" index="1" speed="13.89" length="20.80" shape="201.60,189.60 201.60,210.40"/>
    </edge>
    <edge id=":B1_6" function="internal">
        <lane id=":B1_6_0" index="0" speed="13.89" length="20.80" shape="189.60,195.20 210.40,195.20"/>
        <lane id=":B1_6_1" index="1" speed="13.89" length="20.80" shape="189.60,198.40 210.40,198.40"/>
    </edge>
    <edge id=":B2_0" function="internal">
        <lane id=":B2_0_0" index="0" speed="13.89" length="27.20" shape="195.20,313.60 195.20,286.40"/>
        <lane id=":B2_0_1" index="1" speed="13.89" length="27.20" shape="198.40,313.60 198.40,286.40"/>
    </edge>
    <edge id=":B2_2" function="internal">
        <lane id=":B2_2_0" index="0" speed="13.89" length="20.80" shape="210.40,308.00 189.60,308.00"/>
        <lane id=":B2_2_1" index="1" speed="13.89" length="20.80" shape="210.40,304.80 189.60,304.80"/>
        <lane id=":B2_2_2" index="2" speed="13.89" length="20.80" shape="210.40,301.60 189.60,301.60"/>
    </edge>
    <edge id=":B2_5" function="internal">
        <lane id=":B2_5_0" index="0" speed="13.89" length="27.20" shape="204.80,286.40 204.80,313.60"/>
        <lane id=":B2_5_1" index="1" speed="13.89" length="27.20" shape="201.60,286.40 201.60,313.60"/>
    </edge>
    <edge id=":B2_7" function="internal">
        <lane id=":B2_7_0" index="0" speed="13.89" length="20.80" shape="189.60,292.00 210.40,292.00"/>
        <lane id=":B2_7_1" index="1" speed="13.89" length="20.80" shape="189.60,295.20 210.40,295.20"/>
        <lane id=":B2_7_2" index="2" speed="13.89" length="20.80" shape="189.60,298.40 210.40,298.40"/>
    </edge>
    <edge id=":B3_0" function="internal">
        <lane id=":B3_0_0" index="0" speed="13.89" length="20.80" shape="195.20,410.40 195.20,389.60"/>
        <lane id=":B3_0_1" index="1" speed="13.89" length="20.80" shape="198.40,410.40 198.40,389.60"/>
    </edge>
    <edge id=":B3_2" function="internal">
        <lane id=":B3_2_0" index="0" speed="13.89" length="20.80" shape="210.40,404.80 189.60,404.80"/>
        <lane id=":B3_2_1" index="1" speed="13.89" length="20.80" shape="210.40,401.60 189.60,401.60"/>
    </edge>
    <edge id=":B3_4" function="internal">
        <lane id=":B3_4_0" index="0" speed="13.89" length="20.80" shape="204.80,389.60 204.80,410.40"/>
        <lane id=":B3_4_1" index="1" speed="13.89" length="20.80" shape="201.60,389.60 201.60,410.40"/>
    </edge>
    <edge id=":B3_6" function="internal">
        <lane id=":B3_6_0" index="0" speed="13.89" length="20.80" shape="189.60,395.20 210.40,395.20"/>
        <lane id=":B3_6_1" index="1" speed="13.89" length="20.80" shape="189.60,398.40 210.40,398.40"/>
    </edge>
    <edge id=":B4_0" function="internal">
        <lane id=":B4_0_0" index="0" speed="13.89" length="14.40" shape="195.20,507.20 195.20,492.80"/>
        <lane id=":B4_0_1" index="1" speed="13.89" length="14.40" shape="198.40,507.20 198.40,492.80"/>
    </edge>
    <edge id=":B4_2" function="internal">
        <lane id=":B4_2_0" index="0" speed="13.89" length="20.80" shape="210.40,501.60 189.60,501.60"/>
    </edge>
    <edge id=":B4_3" function="internal">
        <lane id=":B4_3_0" index="0" speed="13.89" length="14.40" shape="204.80,492.80 204.80,507.20"/>
        <lane id=":B4_3_1" index="1" speed="13.89" length="14.40" shape="201.60,492.80 201.60,507.20"/>
    </edge>
    <edge id=":B4_5" function="internal">
        <lane id=":B4_5_0" index="0" speed="13.89" length="20.80" shape="189.60,498.40 210.40,498.40"/>
    </edge>
    <edge id=":C0_0" function="internal">
        <lane id=":C0_0_0" index="0" speed="13.89" length="14.40" shape="292.00,107.20 292.00,92.80"/>
        <lane id=":C0_0_1" index="1" speed="13.89" length="14.40" shape="295.20,107.20 295.20,92.80"/>
        <lane id=":C0_0_2" index="2" speed="13.89" length="14.40" shape="298.40,107.20 298.40,92.80"/>
    </edge>
    <edge id=":C0_3" function="internal">
        <lane id=":C0_3_0" index="0" speed="13.89" length="27.20" shape="313.60,101.60 286.40,101.60"/>
    </edge>
    <edge id=":C0_4" function="internal">
        <lane id=":C0_4_0" index="0" speed="13.89" length="14.40" shape="308.00,92.80 308.00,107.20"/>
        <lane id=":C0_4_1" index="1" speed="13.89" length="14.40" shape="304.80,92.80 304.80,107.20"/>
        <lane id=":C0_4_2" index="2" speed="13.89" length="14.40" shape="301.60,92.80 301.60,107.20"/>
    </edge>
    <edge id=":C0_7" function="internal">
        <lane id=":C0_7_0" index="0" speed="13.89" length="27.20" shape="286.40,98.40 313.60,98.40"/>
    </edge>
    <edge id=":C1_0" function="internal">
        <lane id=":C1_0_0" index="0" speed="13.89" length="20.80" shape="292.00,210.40 292.00,189.60"/>
        <lane id=":C1_0_1" index="1" speed="13.89" length="20.80" shape="295.20,210.40 295.20,189.60"/>
        <lane id=":C1_0_2" index="2" speed="13.89" length="20.80" shape="298.40,210.40 298.40,189.60"/>
    </edge>
    <edge id=":C1_3" function="internal">
        <lane id=":C1_3_0" index="0" speed="13.89" length="27.20" shape="313.60,204.80 286.40,204.80"/>
        <lane id=":C1_3_1" index="1" speed="13.89" length="27.20" shape="313.60,201.60 286.40,201.60"/>
    </edge>
    <edge id=":C1_5" function="internal">
        <lane id=":C1_5_0" index="0" speed="13.89" length="20.80" shape="308.00,189.60 308.00,210.40"/>
        <lane id=":C1_5_1" index="1" speed="13.89" length="20.80" shape="304.80,189.60 304.80,210.40"/>
        <lane id=":C1_5_2" index="2" speed="13.89" length="20.80" shape="301.60,189.60 301.60,210.40"/>
    </edge>
    <edge id=":C1_8" function="internal">
        <lane id=":C1_8_0" index="0" speed="13.89" length="27.20" shape="286.40,195.20 313.60,195.20"/>
        <lane id=":C1_8_1" index="1" speed="13.89" length="27.20" shape="286.40,198.40 313.60,198.40"/>
    </edge>
    <edge id=":C2_0" function="internal">
        <lane id=":C2_0_0" index="0" speed="13.89" length="27.20" shape="292.00,313.60 292.00,286.40"/>
        <lane id=":C2_0_1" index="1" speed="13.89" length="27.20" shape="295.20,313.60 295.20,286.40"/>
        <lane id=":C2_0_2" index="2" speed="13.89" length="27.20" shape="298.40,313.60 298.40,286.40"/>
    </edge>
    <edge id=":C2_3" function="internal">
        <lane id=":C2_3_0" index="0" speed="13.89" length="27.20" shape="313.60,308.00 286.40,308.00"/>
        <lane id=":C2_3_1" index="1" speed="13.89" length="27.20" shape="313.60,304.80 286.40,304.80"/>
        <lane id=":C2_3_2" index="2" speed="13.89" length="27.20" shape="313.60,301.60 286.40,301.60"/>
    </edge>
    <edge id=":C2_6" function="internal">
        <lane id=":C2_6_0" index="0" speed="13.89" length="27.20" shape="308.00,286.40 308.00,313.60"/>
        <lane id=":C2_6_1" index="1" speed="13.89" length="27.20" shape="304.80,286.40 304.80,313.60"/>
        <lane id=":C2_6_2" index="2" speed="13.89" length="27.20" shape="301.60,286.40 301.60,313.60"/>
    </edge>
    <edge id=":C2_9" function="internal">
        <lane id=":C2_9_0" index="0" speed="13.89" length="27.20" shape="286.40,292.00 313.60,292.00"/>
        <lane id=":C2_9_1" index="1" speed="13.89" length="27.20" shape="286.40,295.20 313.60,295.20"/>
        <lane id=":C2_9_2" index="2" speed="13.89" length="27.20" shape="286.40,298.40 313.60,298.40"/>
    </edge>
    <edge id=":C3_0" function="internal">
        <lane id=":C3_0_0" index="0" speed="13.89" length="20.80" shape="292.00,410.40 292.00,389.60"/>
        <lane id=":C3_0_1" index="1" speed="13.89" length="20.80" shape="295.20,410.40 295.20,389.60"/>
        <lane id=":C3_0_2" index="2" speed="13.89" length="20.80" shape="298.40,410.40 298.40,389.60"/>
    </edge>
    <edge id=":C3_3" function="internal">
        <lane id=":C3_3_0" index="0" speed="13.89" length="27.20" shape="313.60,404.80 286.40,404.80"/>
        <lane id=":C3_3_1" index="1" speed="13.89" length="27.20" shape="313.60,401.60 286.40,401.60"/>
    </edge>
    <edge id=":C3_5" function="internal">
        <lane id=":C3_5_0" index="0" speed="13.89" length="20.80" shape="308.00,389.60 308.00,410.40"/>
        <lane id=":C3_5_1" index="1" speed="13.89" length="20.80" shape="304.80,389.60 304.80,410.40"/>
        <lane id=":C3_5_2" index="2" speed="13.89" length="20.80" shape="301.60,389.60 301.60,410.40"/>
    </edge>
    <edge id=":C3_8" function="internal">
        <lane id=":C3_8_0" index="0" speed="13.89" length="27.20" shape="286.40,395.20 313.60,395.20"/>
        <lane id=":C3_8_1" index="1" speed="13.89" length="27.20" shape="286.40,398.40 313.60,398.40"/>
    </edge>
    <edge id=":C4_0" function="internal">
        <lane id=":C4_0_0" index="0" speed="13.89" length="14.40" shape="292.00,507.20 292.00,492.80"/>
        <lane id=":C4_0_1" index="1" speed="13.89" length="14.40" shape="295.20,507.20 295.20,492.80"/>
        <lane id=":C4_0_2" index="2" speed="13.89" length="14.40" shape="298.40,507.20 298.40,492.80"/>
    </edge>
    <edge id=":C4_3" function="internal">
        <lane id=":C4_3_0" index="0" speed="13.89" length="27.20" shape="313.60,501.60 286.40,501.60"/>
    </edge>
    <edge id=":C4_4" function="internal">
        <lane id=":C4_4_0" index="0" speed="13.89" length="14.40" shape="308.00,492.80 308.00,507.20"/>
        <lane id=":C4_4_1" index="1" speed="13.89" length="14.40" shape="304.80,492.80 304.80,507.20"/>
        <lane id=":C4_4_2" index="2" speed="13.89" length="14.40" shape="301.60,492.80 301.60,507.20"/>
    </edge>
    <edge id=":C4_7" function="internal">
        <lane id=":C4_7_0" index="0" speed="13.89" length="27.20" shape="286.40,498.40 313.60,498.40"/>
    </edge>
    <edge id=":D0_0" function="internal">
        <lane id=":D0_0_0" index="0" speed="13.89" length="14.40" shape="395.20,107.20 395.20,92.80"/>
        <lane id=":D0_0_1" index="1" speed="13.89" length="14.40" shape="398.40,107.20 398.40,92.80"/>
    </edge>
    <edge id=":D0_2" function="internal">
        <lane id=":D0_2_0" index="0" speed="13.89" length="20.80" shape="410.40,101.60 389.60,101.60"/>
    </edge>
    <edge id=":D0_3" function="internal">
        <lane id=":D0_3_0" index="0" speed="13.89" length="14.40" shape="404.80,92.80 404.80,107.20"/>
        <lane id=":D0_3_1" index="1" speed="13.89" length="14.40" shape="401.60,92.80 401.60,107.20"/>
    </edge>
    <edge id=":D0_5" function="internal">
        <lane id=":D0_5_0" index="0" speed="13.89" length="20.80" shape="389.60,98.40 410.40,98.40"/>
    </edge>
    <edge id=":D1_0" function="internal">
        <lane id=":D1_0_0" index="0" speed="13.89" length="20.80" shape="395.20,210.40 395.20,189.60"/>
        <lane id=":D1_0_1" index="1" speed="13.89" length="20.80" shape="398.40,210.40 398.40,189.60"/>
    </edge>
    <edge id=":D1_2" function="internal">
        <lane id=":D1_2_0" index="0" speed="13.89" length="20.80" shape="410.40,204.80 389.60,204.80"/>
        <lane id=":D1_2_1" index="1" speed="13.89" length="20.80" shape="410.40,201.60 389.60,201.60"/>
    </edge>
    <edge id=":D1_4" function="internal">
        <lane id=":D1_4_0" index="0" speed="13.89" length="20.80" shape="404.80,189.60 404.80,210.40"/>
        <lane id=":D1_4_1" index="1" speed="13.89" length="20.80" shape="401.60,189.60 401.60,210.40"/>
    </edge>
    <edge id=":D1_6" function="internal">
        <lane id=":D1_6_0" index="0" speed="13.89" length="20.80" shape="389.60,195.20 410.40,195.20"/>
        <lane id=":D1_6_1" index="1" speed="13.89" length="20.80" shape="389.60,198.40 410.40,198.40"/>
    </edge>
    <edge id=":D2_0" function="internal">
        <lane id=":D2_0_0" index="0" speed="13.89" length="27.20" shape="395.20,313.60 395.20,286.40"/>
        <lane id=":D2_0_1" index="1" speed="13.89" length="27.20" shape="398.40,313.60 398.40,286.40"/>
    </edge>
    <edge id=":D2_2" function="internal">
        <lane id=":D2_2_0" index="0" speed="13.89" length="20.80" shape="410.40,308.00 389.60,308.00"/>
        <lane id=":D2_2_1" index="1" speed="13.89" length="20.80" shape="410.40,304.80 389.60,304.80"/>
        <lane id=":D2_2_2" index="2" speed="13.89" length="20.80" shape="410.40,301.60 389.60,301.60"/>
    </edge>
    <edge id=":D2_5" function="internal">
        <lane id=":D2_5_0" index="0" speed="13.89" length="27.20" shape="404.80,286.40 404.80,313.60"/>
        <lane id=":D2_5_1" index="1" speed="13.89" length="27.20" shape="401.60,286.40 401.60,313.60"/>
    </edge>
    <edge id=":D2_7" function="internal">
        <lane id=":D2_7_0" index="0" speed="13.89" length="20.80" shape="389.60,292.00 410.40,292.00"/>
        <lane id=":D2_7_1" index="1" speed="13.89" length="20.80" shape="389.60,295.20 410.40,295.20"/>
        <lane id=":D2_7_2" index="2" speed="13.89" length="20.80" shape="389.60,298.40 410.40,298.40"/>
    </edge>
    <edge id=":D3_0" function="internal">
        <lane id=":D3_0_0" index="0" speed="13.89" length="20.80" shape="395.20,410.40 395.20,389.60"/>
        <lane id=":D3_0_1" index="1" speed="13.89" length="20.80" shape="398.40,410.40 398.40,389.60"/>
    </edge>
    <edge id=":D3_2" function="internal">
        <lane id=":D3_2_0" index="0" speed="13.89" length="20.80" shape="410.40,404.80 389.60,404.80"/>
        <lane id=":D3_2_1" index="1" speed="13.89" length="20.80" shape="410.40,401.60 389.60,401.60"/>
    </edge>
    <edge id=":D3_4" function="internal">
        <lane id=":D3_4_0" index="0" speed="13.89" length="20.80" shape="404.80,389.60 404.80,410.40"/>
        <lane id=":D3_4_1" index="1" speed="13.89" length="20.80" shape="401.60,389.60 401.60,410.40"/>
    </edge>
    <edge id=":D3_6" function="internal">
        <lane id=":D3_6_0" index="0" speed="13.89" length="20.80" shape="389.60,395.20 410.40,395.20"/>
        <lane id=":D3_6_1" index="1" speed="13.89" length="20.80" shape="389.60,398.40 410.40,398.40"/>
    </edge>
    <edge id=":D4_0" function="internal">
        <lane id=":D4_0_0" index="0" speed="13.89" length="14.40" shape="395.20,507.20 395.20,492.80"/>
        <lane id=":D4_0_1" index="1" speed="13.89" length="14.40" shape="398.40,507.20 398.40,492.80"/>
    </edge>
    <edge id=":D4_2" function="internal">
        <lane id=":D4_2_0" index="0" speed="13.89" length="20.80" shape="410.40,501.60 389.60,501.60"/>
    </edge>
    <edge id=":D4_3" function="internal">
        <lane id=":D4_3_0" index="0" speed="13.89" length="14.40" shape="404.80,492.80 404.80,507.20"/>
        <lane id=":D4_3_1" index="1" speed="13.89" length="14.40" shape="401.60,492.80 401.60,507.20"/>
    </edge>
    <edge id=":D4_5" function="internal">
        <lane id=":D4_5_0" index="0" speed="13.89" length="20.80" shape="389.60,498.40 410.40,498.40"/>
    </edge>
    <edge id=":E0_0" function="internal">
        <lane id=":E0_0_0" index="0" speed="13.89" length="14.40" shape="498.40,107.20 498.40,92.80"/>
    </edge>
    <edge id=":E0_1" function="internal">
        <lane id=":E0_1_0" index="0" speed="13.89" length="14.40" shape="507.20,101.60 492.80,101.60"/>
    </edge>
    <edge id=":E0_2" function="internal">
        <lane id=":E0_2_0" index="0" speed="13.89" length="14.40" shape="501.60,92.80 501.60,107.20"/>
    </edge>
    <edge id=":E0_3" function="internal">
        <lane id=":E0_3_0" index="0" speed="13.89" length="14.40" shape="492.80,98.40 507.20,98.40"/>
    </edge>
    <edge id=":E1_0" function="internal">
        <lane id=":E1_0_0" index="0" speed="13.89" length="20.80" shape="498.40,210.40 498.40,189.60"/>
    </edge>
    <edge id=":E1_1" function="internal">
        <lane id=":E1_1_0" index="0" speed="13.89" length="14.40" shape="507.20,204.80 492.80,204.80"/>
        <lane id=":E1_1_1" index="1" speed="13.89" length="14.40" shape="507.20,201.60 492.80,201.60"/>
    </edge>
    <edge id=":E1_3" function="internal">
        <lane id=":E1_3_0" index="0" speed="13.89" length="20.80" shape="501.60,189.60 501.60,210.40"/>
    </edge>
    <edge id=":E1_4" function="internal">
        <lane id=":E1_4_0" index="0" speed="13.89" length="14.40" shape="492.80,195.20 507.20,195.20"/>
        <lane id=":E1_4_1" index="1" speed="13.89" length="14.40" shape="492.80,198.40 507.20,198.40"/>
    </edge>
    <edge id=":E2_0" function="internal">
        <lane id=":E2_0_0" index="0" speed="13.89" length="27.20" shape="498.40,313.60 498.40,286.40"/>
    </edge>
    <edge id=":E2_1" function="internal">
        <lane id=":E2_1_0" index="0" speed="13.89" length="14.40" shape="507.20,308.00 492.80,308.00"/>
        <lane id=":E2_1_1" index="1" speed="13.89" length="14.40" shape="507.20,304.80 492.80,304.80"/>
        <lane id=":E2_1_2" index="2" speed="13.89" length="14.40" shape="507.20,301.60 492.80,301.60"/>
    </edge>
    <edge id=":E2_4" function="internal">
        <lane id=":E2_4_0" index="0" speed="13.89" length="27.20" shape="501.60,286.40 501.60,313.60"/>
    </edge>
    <edge id=":E2_5" function="internal">
        <lane id=":E2_5_0" index="0" speed="13.89" length="14.40" shape="492.80,292.00 507.20,292.00"/>
        <lane id=":E2_5_1" index="1" speed="13.89" length="14.40" shape="492.80,295.20 507.20,295.20"/>
        <lane id=":E2_5_2" index="2" speed="13.89" length="14.40" shape="492.80,298.40 507.20,298.40"/>
    </edge>
    <edge id=":E3_0" function="internal">
        <lane id=":E3_0_0" index="0" speed="13.89" length="20.80" shape="498.40,410.40 498.40,389.60"/>
    </edge>
    <edge id=":E3_1" function="internal">
        <lane id=":E3_1_0" index="0" speed="13.89" length="14.40" shape="507.20,404.80 492.80,404.80"/>
        <lane id=":E3_1_1" index="1" speed="13.89" length="14.40" shape="507.20,401.60 492.80,401.60"/>
    </edge>
    <edge id=":E3_3" function="internal">
        <lane id=":E3_3_0" index="0" speed="13.89" length="20.80" shape="501.60,389.60 501.60,410.40"/>
    </edge>
    <edge id=":E3_4" function="internal">
        <lane id=":E3_4_0" index="0" speed="13.89" length="14.40" shape="492.80,395.20 507.20,395.20"/>
        <lane id=":E3_4_1" index="1" speed="13.89" length="14.40" shape="492.80,398.40 507.20,398.40"/>
    </edge>
    <edge id=":E4_0" function="internal">
        <lane id=":E4_0_0" index="0" speed="13.89" length="14.40" shape="498.40,507.20 498.40,492.80"/>
    </edge>
    <edge id=":E4_1" function="internal">
        <lane id=":E4_1_0" index="0" speed="13.89" length="14.40" shape="507.20,501.60 492.80,501.60"/>
    </edge>
    <edge id=":E4_2" function="internal">
        <lane id=":E4_2_0" index="0" speed="13.89" length="14.40" shape="501.60,492.80 501.60,507.20"/>
    </edge>
    <edge id=":E4_3" function="internal">
        <lane id=":E4_3_0" index="0" speed="13.89" length="14.40" shape="492.80,498.40 507.20,498.40"/>
    </edge>

    <edge id="A0A1" from="A0" to="A1" priority="-1">
        <lane id="A0A1_0" index="0" speed="13.89" length="82.40" shape="101.60,107.20 101.60,189.60"/>
    </edge>
    <edge id="A0B0" from="A0" to="B0" priority="-1">
        <lane id="A0B0_0" index="0" speed="13.89" length="82.40" shape="107.20,98.40 189.60,98.40"/>
    </edge>
    <edge id="A0bottom0" from="A0" to="bottom0" priority="-1">
        <lane id="A0bottom0_0" index="0" speed="13.89" length="92.80" shape="98.40,92.80 98.40,0.00"/>
    </edge>
    <edge id="A0left0" from="A0" to="left0" priority="-1">
        <lane id="A0left0_0" index="0" speed="13.89" length="92.80" shape="92.80,101.60 0.00,101.60"/>
    </edge>
    <edge id="A1A0" from="A1" to="A0" priority="-1">
        <lane id="A1A0_0" index="0" speed="13.89" length="82.40" shape="98.40,189.60 98.40,107.20"/>
    </edge>
    <edge id="A1A2" from="A1" to="A2" priority="-1">
        <lane id="A1A2_0" index="0" speed="13.89" length="76.00" shape="101.60,210.40 101.60,286.40"/>
    </edge>
    <edge id="A1B1" from="A1" to="B1" priority="-1">
        <lane id="A1B1_0" index="0" speed="13.89" length="82.40" shape="107.20,195.20 189.60,195.20"/>
        <lane id="A1B1_1" index="1" speed="13.89" length="82.40" shape="107.20,198.40 189.60,198.40"/>
    </edge>
    <edge id="A1left1" from="A1" to="left1" priority="-1">
        <lane id="A1left1_0" index="0" speed="13.89" length="92.80" shape="92.80,204.80 0.00,204.80"/>
        <lane id="A1left1_1" index="1" speed="13.89" length="92.80" shape="92.80,201.60 0.00,201.60"/>
    </edge>
    <edge id="A2A1" from="A2" to="A1" priority="-1">
        <lane id="A2A1_0" index="0" speed="13.89" length="76.00" shape="98.40,286.40 98.40,210.40"/>
    </edge>
    <edge id="A2A3" from="A2" to="A3" priority="-1">
        <lane id="A2A3_0" index="0" speed="13.89" length="76.00" shape="101.60,313.60 101.60,389.60"/>
    </edge>
    <edge id="A2B2" from="A2" to="B2" priority="-1">
        <lane id="A2B2_0" index="0" speed="13.89" length="82.40" shape="107.20,292.00 189.60,292.00"/>
        <lane id="A2B2_1" index="1" speed="13.89" length="82.40" shape="107.20,295.20 189.60,295.20"/>
        <lane id="A2B2_2" index="2" speed="13.89" length="82.40" shape="107.20,298.40 189.60,298.40"/>
    </edge>
    <edge id="A2left2" from="A2" to="left2" priority="-1">
        <lane id="A2left2_0" index="0" speed="13.89" length="92.80" shape="92.80,308.00 0.00,308.00"/>
        <lane id="A2left2_1" index="1" speed="13.89" length="92.80" shape="92.80,304.80 0.00,304.80"/>
        <lane id="A2left2_2" index="2" speed="13.89" length="92.80" shape="92.80,301.60 0.00,301.60"/>
    </edge>
    <edge id="A3A2" from="A3" to="A2" priority="-1">
        <lane id="A3A2_0" index="0" speed="13.89" length="76.00" shape="98.40,389.60 98.40,313.60"/>
    </edge>
    <edge id="A3A4" from="A3" to="A4" priority="-1">
        <lane id="A3A4_0" index="0" speed="13.89" length="82.40" shape="101.60,410.40 101.60,492.80"/>
    </edge>
    <edge id="A3B3" from="A3" to="B3" priority="-1">
        <lane id="A3B3_0" index="0" speed="13.89" length="82.40" shape="107.20,395.20 189.60,395.20"/>
        <lane id="A3B3_1" index="1" speed="13.89" length="82.40" shape="107.20,398.40 189.60,398.40"/>
    </edge>
    <edge id="A3left3" from="A3" to="left3" priority="-1">
        <lane id="A3left3_0" index="0" speed="13.89" length="92.80" shape="92.80,404.80 0.00,404.80"/>
        <lane id="A3left3_1" index="1" speed="13.89" length="92.80" shape="92.80,401.60 0.00,401.60"/>
    </edge>
    <edge id="A4A3" from="A4" to="A3" priority="-1">
        <lane id="A4A3_0" index="0" speed="13.89" length="82.40" shape="98.40,492.80 98.40,410.40"/>
    </edge>
    <edge id="A4B4" from="A4" to="B4" priority="-1">
        <lane id="A4B4_0" index="0" speed="13.89" length="82.40" shape="107.20,498.40 189.60,498.40"/>
    </edge>
    <edge id="A4left4" from="A4" to="left4" priority="-1">
        <lane id="A4left4_0" index="0" speed="13.89" length="92.80" shape="92.80,501.60 0.00,501.60"/>
    </edge>
    <edge id="A4top0" from="A4" to="top0" priority="-1">
        <lane id="A4top0_0" index="0" speed="13.89" length="92.80" shape="101.60,507.20 101.60,600.00"/>
    </edge>
    <edge id="B0A0" from="B0" to="A0" priority="-1">
        <lane id="B0A0_0" index="0" speed="13.89" length="82.40" shape="189.60,101.60 107.20,101.60"/>
    </edge>
    <edge id="B0B1" from="B0" to="B1" priority="-1">
        <lane id="B0B1_0" index="0" speed="13.89" length="82.40" shape="204.80,107.20 204.80,189.60"/>