<?xml version="1.0" encoding="UTF-8"?>

<!-- generated on 02/07/22 11:31:31 by Eclipse SUMO netedit Version 1.8.0
<configuration xmlns:xsi="http://www.w3.org/2001/XMLSchema-instance" xsi:noNamespaceSchemaLocation="http://sumo.dlr.de/xsd/netconvertConfiguration.xsd">

    <input>
        <sumo-net-file value=".\grid.net.xml"/>
    </input>

    <output>
        <output-file value=".\grid.net.xml"/>
    </output>

    <processing>
        <geometry.min-radius.fix.railways value="false"/>
        <geometry.max-grade.fix value="false"/>
        <offset.disable-normalization value="true"/>
        <lefthand value="false"/>
    </processing>

    <junctions>
        <no-turnarounds value="true"/>
        <junctions.corner-detail value="5"/>
        <junctions.limit-turn-speed value="5.5"/>
        <rectangular-lane-cut value="false"/>
    </junctions>

    <pedestrian>
        <walkingareas value="false"/>
    </pedestrian>

    <report>
        <aggregate-warnings value="5"/>
    </report>

</configuration>
-->

<net version="1.6" junctionCornerDetail="5" limitTurnSpeed="5.50" xmlns:xsi="http://www.w3.org/2001/XMLSchema-instance" xsi:noNamespaceSchemaLocation="http://sumo.dlr.de/xsd/net_file.xsd">

    <location netOffset="0.00,0.00" convBoundary="0.00,0.00,800.00,800.00" origBoundary="0.00,0.00,800.00,800.00" projParameter="!"/>

    <edge id=":A0_0" function="internal">
        <lane id=":A0_0_0" index="0" speed="13.89" length="27.20" shape="192.00,213.60 192.00,186.40"/>
        <lane id=":A0_0_1" index="1" speed="13.89" length="27.20" shape="195.20,213.60 195.20,186.40"/>
        <lane id=":A0_0_2" index="2" speed="13.89" length="27.20" shape="198.40,213.60 198.40,186.40"/>
    </edge>
    <edge id=":A0_3" function="internal">
        <lane id=":A0_3_0" index="0" speed="13.89" length="27.20" shape="213.60,208.00 186.40,208.00"/>
        <lane id=":A0_3_1" index="1" speed="13.89" length="27.20" shape="213.60,204.80 186.40,204.80"/>
        <lane id=":A0_3_2" index="2" speed="13.89" length="27.20" shape="213.60,201.60 186.40,201.60"/>
    </edge>
    <edge id=":A0_6" function="internal">
        <lane id=":A0_6_0" index="0" speed="13.89" length="27.20" shape="208.00,186.40 208.00,213.60"/>
        <lane id=":A0_6_1" index="1" speed="13.89" length="27.20" shape="204.80,186.40 204.80,213.60"/>
        <lane id=":A0_6_2" index="2" speed="13.89" length="27.20" shape="201.60,186.40 201.60,213.60"/>
    </edge>
    <edge id=":A0_9" function="internal">
        <lane id=":A0_9_0" index="0" speed="6.51" length="9.03" shape="186.40,192.00 188.85,191.65 190.60,190.60 191.65,188.85 192.00,186.40"/>
    </edge>
    <edge id=":A0_10" function="internal">
        <lane id=":A0_10_0" index="0" speed="13.89" length="27.20" shape="186.40,192.00 213.60,192.00"/>
        <lane id=":A0_10_1" index="1" speed="13.89" length="27.20" shape="186.40,195.20 213.60,195.20"/>
        <lane id=":A0_10_2" index="2" speed="13.89" length="27.20" shape="186.40,198.40 213.60,198.40"/>
    </edge>
    <edge id=":A1_0" function="internal">
        <lane id=":A1_0_0" index="0" speed="13.89" length="27.20" shape="192.00,413.60 192.00,386.40"/>
        <lane id=":A1_0_1" index="1" speed="13.89" length="27.20" shape="195.20,413.60 195.20,386.40"/>
        <lane id=":A1_0_2" index="2" speed="13.89" length="27.20" shape="198.40,413.60 198.40,386.40"/>
    </edge>
    <edge id=":A1_3" function="internal">
        <lane id=":A1_3_0" index="0" speed="13.89" length="27.20" shape="213.60,408.00 186.40,408.00"/>
        <lane id=":A1_3_1" index="1" speed="13.89" length="27.20" shape="213.60,404.80 186.40,404.80"/>
        <lane id=":A1_3_2" index="2" speed="13.89" length="27.20" shape="213.60,401.60 186.40,401.60"/>
    </edge>
    <edge id=":A1_6" function="internal">
        <lane id=":A1_6_0" index="0" speed="13.89" length="27.20" shape="208.00,386.40 208.00,413.60"/>
        <lane id=":A1_6_1" index="1" speed="13.89" length="27.20" shape="204.80,386.40 204.80,413.60"/>
        <lane id=":A1_6_2" index="2" speed="13.89" length="27.20" shape="201.60,386.40 201.60,413.60"/>
    </edge>
    <edge id=":A1_9" function="internal">
        <lane id=":A1_9_0" index="0" speed="13.89" length="27.20" shape="186.40,392.00 213.60,392.00"/>
        <lane id=":A1_9_1" index="1" speed="13.89" length="27.20" shape="186.40,395.20 213.60,395.20"/>
        <lane id=":A1_9_2" index="2" speed="13.89" length="27.20" shape="186.40,398.40 213.60,398.40"/>
    </edge>
    <edge id=":A2_0" function="internal">
        <lane id=":A2_0_0" index="0" speed="13.89" length="27.20" shape="192.00,613.60 192.00,586.40"/>
        <lane id=":A2_0_1" index="1" speed="13.89" length="27.20" shape="195.20,613.60 195.20,586.40"/>
        <lane id=":A2_0_2" index="2" speed="13.89" length="27.20" shape="198.40,613.60 198.40,586.40"/>
    </edge>
    <edge id=":A2_3" function="internal">
        <lane id=":A2_3_0" index="0" speed="13.89" length="27.20" shape="213.60,608.00 186.40,608.00"/>
        <lane id=":A2_3_1" index="1" speed="13.89" length="27.20" shape="213.60,604.80 186.40,604.80"/>
        <lane id=":A2_3_2" index="2" speed="13.89" length="27.20" shape="213.60,601.60 186.40,601.60"/>
    </edge>
    <edge id=":A2_6" function="internal">
        <lane id=":A2_6_0" index="0" speed="13.89" length="27.20" shape="208.00,586.40 208.00,613.60"/>
        <lane id=":A2_6_1" index="1" speed="13.89" length="27.20" shape="204.80,586.40 204.80,613.60"/>
        <lane id=":A2_6_2" index="2" speed="13.89" length="27.20" shape="201.60,586.40 201.60,613.60"/>
    </edge>
    <edge id=":A2_9" function="internal">
        <lane id=":A2_9_0" index="0" speed="13.89" length="27.20" shape="186.40,592.00 213.60,592.00"/>
        <lane id=":A2_9_1" index="1" speed="13.89" length="27.20" shape="186.40,595.20 213.60,595.20"/>
        <lane id=":A2_9_2" index="2" speed="13.89" length="27.20" shape="186.40,598.40 213.60,598.40"/>
    </edge>
    <edge id=":B0_0" function="internal">
        <lane id=":B0_0_0" index="0" speed="13.89" length="27.20" shape="392.00,213.60 392.00,186.40"/>
        <lane id=":B0_0_1" index="1" speed="13.89" length="27.20" shape="395.20,213.60 395.20,186.40"/>
        <lane id=":B0_0_2" index="2" speed="13.89" length="27.20" shape="398.40,213.60 398.40,186.40"/>
    </edge>
    <edge id=":B0_3" function="internal">
        <lane id=":B0_3_0" index="0" speed="13.89" length="27.20" shape="413.60,208.00 386.40,208.00"/>
        <lane id=":B0_3_1" index="1" speed="13.89" length="27.20" shape="413.60,204.80 386.40,204.80"/>
        <lane id=":B0_3_2" index="2" speed="13.89" length="27.20" shape="413.60,201.60 386.40,201.60"/>
    </edge>
    <edge id=":B0_6" function="internal">
        <lane id=":B0_6_0" index="0" speed="13.89" length="27.20" shape="408.00,186.40 408.00,213.60"/>
        <lane id=":B0_6_1" index="1" speed="13.89" length="27.20" shape="404.80,186.40 404.80,213.60"/>
        <lane id=":B0_6_2" index="2" speed="13.89" length="27.20" shape="401.60,186.40 401.60,213.60"/>
    </edge>
    <edge id=":B0_9" function="internal">
        <lane id=":B0_9_0" index="0" speed="13.89" length="27.20" shape="386.40,192.00 413.60,192.00"/>
        <lane id=":B0_9_1" index="1" speed="13.89" length="27.20" shape="386.40,195.20 413.60,195.20"/>
        <lane id=":B0_9_2" index="2" speed="13.89" length="27.20" shape="386.40,198.40 413.60,198.40"/>
    </edge>
    <edge id=":B1_0" function="internal">
        <lane id=":B1_0_0" index="0" speed="13.89" length="27.20" shape="392.00,413.60 392.00,386.40"/>
        <lane id=":B1_0_1" index="1" speed="13.89" length="27.20" shape="395.20,413.60 395.20,386.40"/>
        <lane id=":B1_0_2" index="2" speed="13.89" length="27.20" shape="398.40,413.60 398.40,386.40"/>
    </edge>
    <edge id=":B1_3" function="internal">
        <lane id=":B1_3_0" index="0" speed="13.89" length="27.20" shape="413.60,408.00 386.40,408.00"/>
        <lane id=":B1_3_1" index="1" speed="13.89" length="27.20" shape="413.60,404.80 386.40,404.80"/>
        <lane id=":B1_3_2" index="2" speed="13.89" length="27.20" shape="413.60,401.60 386.40,401.60"/>
    </edge>
    <edge id=":B1_6" function="internal">
        <lane id=":B1_6_0" index="0" speed="13.89" length="27.20" shape="408.00,386.40 408.00,413.60"/>
        <lane id=":B1_6_1" index="1" speed="13.89" length="27.20" shape="404.80,386.40 404.80,413.60"/>
        <lane id=":B1_6_2" index="2" speed="13.89" length="27.20" shape="401.60,386.40 401.60,413.60"/>
    </edge>
    <edge id=":B1_9" function="internal">
        <lane id=":B1_9_0" index="0" speed="13.89" length="27.20" shape="386.40,392.00 413.60,392.00"/>
        <lane id=":B1_9_1" index="1" speed="13.89" length="27.20" shape="386.40,395.20 413.60,395.20"/>
        <lane id=":B1_9_2" index="2" speed="13.89" length="27.20" shape="386.40,398.40 413.60,398.40"/>
    </edge>
    <edge id=":B2_0" function="internal">
        <lane id=":B2_0_0" index="0" speed="13.89" length="27.20" shape="392.00,613.60 392.00,586.40"/>
        <lane id=":B2_0_1" index="1" speed="13.89" length="27.20" shape="395.20,613.60 395.20,586.40"/>
        <lane id=":B2_0_2" index="2" speed="13.89" length="27.20" shape="398.40,613.60 398.40,586.40"/>
    </edge>
    <edge id=":B2_3" function="internal">
        <lane id=":B2_3_0" index="0" speed="13.89" length="27.20" shape="413.60,608.00 386.40,608.00"/>
        <lane id=":B2_3_1" index="1" speed="13.89" length="27.20" shape="413.60,604.80 386.40,604.80"/>
        <lane id=":B2_3_2" index="2" speed="13.89" length="27.20" shape="413.60,601.60 386.40,601.60"/>
    </edge>
    <edge id=":B2_6" function="internal">
        <lane id=":B2_6_0" index="0" speed="13.89" length="27.20" shape="408.00,586.40 408.00,613.60"/>
        <lane id=":B2_6_1" index="1" speed="13.89" length="27.20" shape="404.80,586.40 404.80,613.60"/>
        <lane id=":B2_6_2" index="2" speed="13.89" length="27.20" shape="401.60,586.40 401.60,613.60"/>
    </edge>
    <edge id=":B2_9" function="internal">
        <lane id=":B2_9_0" index="0" speed="13.89" length="27.20" shape="386.40,592.00 413.60,592.00"/>
        <lane id=":B2_9_1" index="1" speed="13.89" length="27.20" shape="386.40,595.20 413.60,595.20"/>
        <lane id=":B2_9_2" index="2" speed="13.89" length="27.20" shape="386.40,598.40 413.60,598.40"/>
    </edge>
    <edge id=":C0_0" function="internal">
        <lane id=":C0_0_0" index="0" speed="13.89" length="27.20" shape="592.00,213.60 592.00,186.40"/>
        <lane id=":C0_0_1" index="1" speed="13.89" length="27.20" shape="595.20,213.60 595.20,186.40"/>
        <lane id=":C0_0_2" index="2" speed="13.89" length="27.20" shape="598.40,213.60 598.40,186.40"/>
    </edge>
    <edge id=":C0_3" function="internal">
        <lane id=":C0_3_0" index="0" speed="13.89" length="27.20" shape="613.60,208.00 586.40,208.00"/>
        <lane id=":C0_3_1" index="1" speed="13.89" length="27.20" shape="613.60,204.80 586.40,204.80"/>
        <lane id=":C0_3_2" index="2" speed="13.89" length="27.20" shape="613.60,201.60 586.40,201.60"/>
    </edge>
    <edge id=":C0_6" function="internal">
        <lane id=":C0_6_0" index="0" speed="13.89" length="27.20" shape="608.00,186.40 608.00,213.60"/>
        <lane id=":C0_6_1" index="1" speed="13.89" length="27.20" shape="604.80,186.40 604.80,213.60"/>
        <lane id=":C0_6_2" index="2" speed="13.89" length="27.20" shape="601.60,186.40 601.60,213.60"/>
    </edge>
    <edge id=":C0_9" function="internal">
        <lane id=":C0_9_0" index="0" speed="13.89" length="27.20" shape="586.40,192.00 613.60,192.00"/>
        <lane id=":C0_9_1" index="1" speed="13.89" length="27.20" shape="586.40,195.20 613.60,195.20"/>
        <lane id=":C0_9_2" index="2" speed="13.89" length="27.20" shape="586.40,198.40 613.60,198.40"/>
    </edge>
    <edge id=":C1_0" function="internal">
        <lane id=":C1_0_0" index="0" speed="13.89" length="27.20" shape="592.00,413.60 592.00,386.40"/>
        <lane id=":C1_0_1" index="1" speed="13.89" length="27.20" shape="595.20,413.60 595.20,386.40"/>
        <lane id=":C1_0_2" index="2" speed="13.89" length="27.20" shape="598.40,413.60 598.40,386.40"/>
    </edge>
    <edge id=":C1_3" function="internal">
        <lane id=":C1_3_0" index="0" speed="13.89" length="27.20" shape="613.60,408.00 586.40,408.00"/>
        <lane id=":C1_3_1" index="1" speed="13.89" length="27.20" shape="613.60,404.80 586.40,404.80"/>
        <lane id=":C1_3_2" index="2" speed="13.89" length="27.20" shape="613.60,401.60 586.40,401.60"/>
    </edge>
    <edge id=":C1_6" function="internal">
        <lane id=":C1_6_0" index="0" speed="13.89" length="27.20" shape="608.00,386.40 608.00,413.60"/>
        <lane id=":C1_6_1" index="1" speed="13.89" length="27.20" shape="604.80,386.40 604.80,413.60"/>
        <lane id=":C1_6_2" index="2" speed="13.89" length="27.20" shape="601.60,386.40 601.60,413.60"/>
    </edge>
    <edge id=":C1_9" function="internal">
        <lane id=":C1_9_0" index="0" speed="13.89" length="27.20" shape="586.40,392.00 613.60,392.00"/>
        <lane id=":C1_9_1" index="1" speed="13.89" length="27.20" shape="586.40,395.20 613.60,395.20"/>
        <lane id=":C1_9_2" index="2" speed="13.89" length="27.20" shape="586.40,398.40 613.60,398.40"/>
    </edge>
    <edge id=":C2_0" function="internal">
        <lane id=":C2_0_0" index="0" speed="13.89" length="27.20" shape="592.00,613.60 592.00,586.40"/>
        <lane id=":C2_0_1" index="1" speed="13.89" length="27.20" shape="595.20,613.60 595.20,586.40"/>
        <lane id=":C2_0_2" index="2" speed="13.89" length="27.20" shape="598.40,613.60 598.40,586.40"/>
    </edge>
    <edge id=":C2_3" function="internal">
        <lane id=":C2_3_0" index="0" speed="13.89" length="27.20" shape="613.60,608.00 586.40,608.00"/>
        <lane id=":C2_3_1" index="1" speed="13.89" length="27.20" shape="613.60,604.80 586.40,604.80"/>
        <lane id=":C2_3_2" index="2" speed="13.89" length="27.20" shape="613.60,601.60 586.40,601.60"/>
    </edge>
    <edge id=":C2_6" function="internal">
        <lane id=":C2_6_0" index="0" speed="13.89" length="27.20" shape="608.00,586.40 608.00,613.60"/>
        <lane id=":C2_6_1" index="1" speed="13.89" length="27.20" shape="604.80,586.40 604.80,613.60"/>
        <lane id=":C2_6_2" index="2" speed="13.89" length="27.20" shape="601.60,586.40 601.60,613.60"/>
    </edge>
    <edge id=":C2_9" function="internal">
        <lane id=":C2_9_0" index="0" speed="13.89" length="27.20" shape="586.40,592.00 613.60,592.00"/>
        <lane id=":C2_9_1" index="1" speed="13.89" length="27.20" shape="586.40,595.20 613.60,595.20"/>
        <lane id=":C2_9_2" index="2" speed="13.89" length="27.20" shape="586.40,598.40 613.60,598.40"/>
    </edge>

    <edge id="A0A1" from="A0" to="A1" priority="-1">
        <lane id="A0A1_0" index="0" speed="13.89" length="172.80" shape="208.00,213.60 208.00,386.40"/>
        <lane id="A0A1_1" index="1" speed="13.89" length="172.80" shape="204.80,213.60 204.80,386.40"/>
        <lane id="A0A1_2" index="2" speed="13.89" length="172.80" shape="201.60,213.60 201.60,386.40"/>
    </edge>
    <edge id="A0B0" from="A0" to="B0" priority="-1">
        <lane id="A0B0_0" index="0" speed="13.89" length="172.80" shape="213.60,192.00 386.40,192.00"/>
        <lane id="A0B0_1" index="1" speed="13.89" length="172.80" shape="213.60,195.20 386.40,195.20"/>
        <lane id="A0B0_2" index="2" speed="13.89" length="172.80" shape="213.60,198.40 386.40,198.40"/>
    </edge>
    <edge id="A0bottom0" from="A0" to="bottom0" priority="-1">
        <lane id="A0bottom0_0" index="0" speed="13.89" length="186.40" shape="192.00,186.40 192.00,0.00"/>
        <lane id="A0bottom0_1" index="1" speed="13.89" length="186.40" shape="195.20,186.40 195.20,0.00"/>
        <lane id="A0bottom0_2" index="2" speed="13.89" length="186.40" shape="198.40,186.40 198.40,0.00"/>
    </edge>
    <edge id="A0left0" from="A0" to="left0" priority="-1">
        <lane id="A0left0_0" index="0" speed="13.89" length="186.40" shape="186.40,208.00 0.00,208.00"/>
        <lane id="A0left0_1" index="1" speed="13.89" length="186.40" shape="186.40,204.80 0.00,204.80"/>
        <lane id="A0left0_2" index="2" speed="13.89" length="186.40" shape="186.40,201.60 0.00,201.60"/>
    </edge>
    <edge id="A1A0" from="A1" to="A0" priority="-1">
        <lane id="A1A0_0" index="0" speed="13.89" length="172.80" shape="192.00,386.40 192.00,213.60"/>
        <lane id="A1A0_1" index="1" speed="13.89" length="172.80" shape="195.20,386.40 195.20,213.60"/>
        <lane id="A1A0_2" index="2" speed="13.89" length="172.80" shape="198.40,386.40 198.40,213.60"/>
    </edge>
    <edge id="A1A2" from="A1" to="A2" priority="-1">
        <lane id="A1A2_0" index="0" speed="13.89" length="172.80" shape="208.00,413.60 208.00,586.40"/>
        <lane id="A1A2_1" index="1" speed="13.89" length="172.80" shape="204.80,413.60 204.80,586.40"/>
        <lane id="A1A2_2" index="2" speed="13.89" length="172.80" shape="201.60,413.60 201.60,586.40"/>
    </edge>
    <edge id="A1B1" from="A1" to="B1" priority="-1">
        <lane id="A1B1_0" index="0" speed="13.89" length="172.80" shape="213.60,392.00 386.40,392.00"/>
        <lane id="A1B1_1" index="1" speed="13.89" length="172.80" shape="213.60,395.20 386.40,395.20"/>
        <lane id="A1B1_2" index="2" speed="13.89" length="172.80" shape="213.60,398.40 386.40,398.40"/>
    </edge>
    <edge id="A1left1" from="A1" to="left1" priority="-1">
        <lane id="A1left1_0" index="0" speed="13.89" length="186.40" shape="186.40,408.00 0.00,408.00"/>
        <lane id="A1left1_1" index="1" speed="13.89" length="186.40" shape="186.40,404.80 0.00,404.80"/>
        <lane id="A1left1_2" index="2" speed="13.89" length="186.40" shape="186.40,401.60 0.00,401.60"/>
    </edge>
    <edge id="A2A1" from="A2" to="A1" priority="-1">
        <lane id="A2A1_0" index="0" speed="13.89" length="172.80" shape="192.00,586.40 192.00,413.60"/>
        <lane id="A2A1_1" index="1" speed="13.89" length="172.80" shape="195.20,586.40 195.20,413.60"/>
        <lane id="A2A1_2" index="2" speed="13.89" length="172.80" shape="198.40,586.40 198.40,413.60"/>
    </edge>
    <edge id="A2B2" from="A2" to="B2" priority="-1">
        <lane id="A2B2_0" index="0" speed="13.89" length="172.80" shape="213.60,592.00 386.40,592.00"/>
        <lane id="A2B2_1" index="1" speed="13.89" length="172.80" shape="213.60,595.20 386.40,595.20"/>
        <lane id="A2B2_2" index="2" speed="13.89" length="172.80" shape="213.60,598.40 386.40,598.40"/>
    </edge>
    <edge id="A2left2" from="A2" to="left2" priority="-1">
        <lane id="A2left2_0" index="0" speed="13.89" length="186.40" shape="186.40,608.00 0.00,608.00"/>
        <lane id="A2left2_1" index="1" speed="13.89" length="186.40" shape="186.40,604.80 0.00,604.80"/>
        <lane id="A2left2_2" index="2" speed="13.89" length="186.40" shape="186.40,601.60 0.00,601.60"/>
    </edge>
    <edge id="A2top0" from="A2" to="top0" priority="-1">
        <lane id="A2top0_0" index="0" speed="13.89" length="186.40" shape="208.00,613.60 208.00,800.00"/>
        <lane id="A2top0_1" index="1" speed="13.89" length="186.40" shape="204.80,613.60 204.80,800.00"/>
        <lane id="A2top0_2" index="2" speed="13.89" length="186.40" shape="201.60,613.60 201.60,800.00"/>
    </edge>
    <edge id="B0A0" from="B0" to="A0" priority="-1">
        <lane id="B0A0_0" index="0" speed="13.89" length="172.80" shape="386.40,208.00 213.60,208.00"/>
        <lane id="B0A0_1" index="1" speed="13.89" length="172.80" shape="386.40,204.80 213.60,204.80"/>
        <lane id="B0A0_2" index="2" speed="13.89" length="172.80" shape="386.40,201.60 213.60,201.60"/>
    </edge>
    <edge id="B0B1" from="B0" to="B1" priority="-1">
        <lane id="B0B1_0" index="0" speed="13.89" length="172.80" shape="408.00,213.60 408.00,386.40"/>
        <lane id="B0B1_1" index="1" speed="13.89" length="172.80" shape="404.80,213.60 404.80,386.40"/>
        <lane id="B0B1_2" index="2" speed="13.89" length="172.80" shape="401.60,213.60 401.60,386.40"/>
    </edge>
    <edge id="B0C0" from="B0" to="C0" priority="-1">
        <lane id="B0C0_0" index="0" speed="13.89" length="172.80" shape="413.60,192.00 586.40,192.00"/>
        <lane id="B0C0_1" index="1" speed="13.89" length="172.80" shape="413.60,195.20 586.40,195.20"/>
        <lane id="B0C0_2" index="2" speed="13.89" length="172.80" shape="413.60,198.40 586.40,198.40"/>
    </edge>
    <edge id="B0bottom1" from="B0" to="bottom1" priority="-1">
        <lane id="B0bottom1_0" index="0" speed="13.89" length="186.40" shape="392.00,186.40 392.00,0.00"/>
        <lane id="B0bottom1_1" index="1" speed="13.89" length="186.40" shape="395.20,186.40 395.20,0.00"/>
        <lane id="B0bottom1_2" index="2" speed="13.89" length="186.40" shape="398.40,186.40 398.40,0.00"/>
    </edge>
    <edge id="B1A1" from="B1" to="A1" priority="-1">
        <lane id="B1A1_0" index="0" speed="13.89" length="172.80" shape="386.40,408.00 213.60,408.00"/>
        <lane id="B1A1_1" index="1" speed="13.89" length="172.80" shape="386.40,404.80 213.60,404.80"/>
        <lane id="B1A1_2" index="2" speed="13.89" length="172.80" shape="386.40,401.60 213.60,401.60"/>
    </edge>
    <edge id="B1B0" from="B1" to="B0" priority="-1">
        <lane id="B1B0_0" index="0" speed="13.89" length="172.80" shape="392.00,386.40 392.00,213.60"/>
        <lane id="B1B0_1" index="1" speed="13.89" length="172.80" shape="395.20,386.40 395.20,213.60"/>
        <lane id="B1B0_2" index="2" speed="13.89" length="172.80" shape="398.40,386.40 398.40,213.60"/>
    </edge>
    <edge id="B1B2" from="B1" to="B2" priority="-1">
        <lane id="B1B2_0" index="0" speed="13.89" length="172.80" shape="408.00,413.60 408.00,586.40"/>
        <lane id="B1B2_1" index="1" speed="13.89" length="172.80" shape="404.80,413.60 404.80,586.40"/>
        <lane id="B1B2_2" index="2" speed="13.89" length="172.80" shape="401.60,413.60 401.60,586.40"/>
    </edge>
    <edge id="B1C1" from="B1" to="C1" priority="-1">
        <lane id="B1C1_0" index="0" speed="13.89" length="172.80" shape="413.60,392.00 586.40,392.00"/>
        <lane id="B1C1_1" index="1" speed="13.89" length="172.80" shape="413.60,395.20 586.40,395.20"/>
        <lane id="B1C1_2" index="2" speed="13.89" length="172.80" shape="413.60,398.40 586.40,398.40"/>
    </edge>
    <edge id="B2A2" from="B2" to="A2" priority="-1">
        <lane id="B2A2_0" index="0" speed="13.89" length="172.80" shape="386.40,608.00 213.60,608.00"/>
        <lane id="B2A2_1" index="1" speed="13.89" length="172.80" shape="386.40,604.80 213.60,604.80"/>
        <lane id="B2A2_2" index="2" speed="13.89" length="172.80" shape="386.40,601.60 213.60,601.60"/>
    </edge>
    <edge id="B2B1" from="B2" to="B1" priority="-1">
        <lane id="B2B1_0" index="0" speed="13.89" length="172.80" shape="392.00,586.40 392.00,413.60"/>
        <lane id="B2B1_1" index="1" speed="13.89" length="172.80" shape="395.20,586.40 395.20,413.60"/>
        <lane id="B2B1_2" index="2" speed="13.89" length="172.80" shape="398.40,586.40 398.40,413.60"/>
    </edge>
    <edge id="B2C2" from="B2" to="C2" priority="-1">
        <lane id="B2C2_0" index="0" speed="13.89" length="172.80" shape="413.60,592.00 586.40,592.00"/>
        <lane id="B2C2_1" index="1" speed="13.89" length="172.80" shape="413.60,595.20 586.40,595.20"/>
        <lane id="B2C2_2" index="2" speed="13.89" length="172.80" shape="413.60,598.40 586.40,598.40"/>
    </edge>
    <edge id="B2top1" from="B2" to="top1" priority="-1">
        <lane id="B2top1_0" index="0" speed="13.89" length="186.40" shape="408.00,613.60 408.00,800.00"/>
        <lane id="B2top1_1" index="1" speed="13.89" length="186.40" shape="404.80,613.60 404.80,800.00"/>
        <lane id="B2top1_2" index="2" speed="13.89" length="186.40" shape="401.60,613.60 401.60,800.00"/>
    </edge>
    <edge id="C0B0" from="C0" to="B0" priority="-1">
        <lane id="C0B0_0" index="0" speed="13.89" length="172.80" shape="586.40,208.00 413.60,208.00"/>
        <lane id="C0B0_1" index="1" speed="13.89" length="172.80" shape="586.40,204.80 413.60,204.80"/>
        <lane id="C0B0_2" index="2" speed="13.89" length="172.80" shape="586.40,201.60 413.60,201.60"/>
    </edge>
    <edge id="C0C1" from="C0" to="C1" priority="-1">
        <lane id="C0C1_0" index="0" speed="13.89" length="172.80" shape="608.00,213.60 608.00,386.40"/>
        <lane id="C0C1_1" index="1" speed="13.89" length="172.80" shape="604.80,213.60 604.80,386.40"/>
        <lane id="C0C1_2" index="2" speed="13.89" length="172.80" shape="601.60,213.60 601.60,386.40"/>
    </edge>
    <edge id="C0bottom2" from="C0" to="bottom2" priority="-1">
        <lane id="C0bottom2_0" index="0" speed="13.89" length="186.40" shape="592.00,186.40 592.00,0.00"/>
        <lane id="C0bottom2_1" index="1" speed="13.89" length="186.40" shape="595.20,186.40 595.20,0.00"/>
        <lane id="C0bottom2_2" index="2" speed="13.89" length="186.40" shape="598.40,186.40 598.40,0.00"/>
    </edge>
    <edge id="C0right0" from="C0" to="right0" priority="-1">
        <lane id="C0right0_0" index="0" speed="13.89" length="186.40" shape="613.60,192.00 800.00,192.00"/>
        <lane id="C0right0_1" index="1" speed="13.89" length="186.40" shape="613.60,195.20 800.00,195.20"/>
        <lane id="C0right0_2" index="2" speed="13.89" length="186.40" shape="613.60,198.40 800.00,198.40"/>
    </edge>
    <edge id="C1B1" from="C1" to="B1" priority="-1">
        <lane id="C1B1_0" index="0" speed="13.89" length="172.80" shape="586.40,408.00 413.60,408.00"/>
        <lane id="C1B1_1" index="1" speed="13.89" length="172.80" shape="586.40,404.80 413.60,404.80"/>
        <lane id="C1B1_2" index="2" speed="13.89" length="172.80" shape="586.40,401.60 413.60,401.60"/>
    </edge>
    <edge id="C1C0" from="C1" to="C0" priority="-1">
        <lane id="C1C0_0" index="0" speed="13.89" length="172.80" shape="592.00,386.40 592.00,213.60"/>
        <lane id="C1C0_1" index="1" speed="13.89" length="172.80" shape="595.20,386.40 595.20,213.60"/>
        <lane id="C1C0_2" index="2" speed="13.89" length="172.80" shape="598.40,386.40 598.40,213.60"/>
    </edge>
    <edge id="C1C2" from="C1" to="C2" priority="-1">
        <lane id="C1C2_0" index="0" speed="13.89" length="172.80" shape="608.00,413.60 608.00,586.40"/>
        <lane id="C1C2_1" index="1" speed="13.89" length="172.80" shape="604.80,413.60 604.80,586.40"/>
        <lane id="C1C2_2" index="2" speed="13.89" length="172.80" shape="601.60,413.60 601.60,586.40"/>
    </edge>
    <edge id="C1right1" from="C1" to="right1" priority="-1">
        <lane id="C1right1_0" index="0" speed="13.89" length="186.40" shape="613.60,392.00 800.00,392.00"/>
        <lane id="C1right1_1" index="1" speed="13.89" length="186.40" shape="613.60,395.20 800.00,395.20"/>
        <lane id="C1right1_2" index="2" speed="13.89" length="186.40" shape="613.60,398.40 800.00,398.40"/>
    </edge>
    <edge id="C2B2" from="C2" to="B2" priority="-1">
        <lane id="C2B2_0" index="0" speed="13.89" length="172.80" shape="586.40,608.00 413.60,608.00"/>
        <lane id="C2B2_1" index="1" speed="13.89" length="172.80" shape="586.40,604.80 413.60,604.80"/>
        <lane id="C2B2_2" index="2" speed="13.89" length="172.80" shape="586.40,601.60 413.60,601.60"/>
    </edge>
    <edge id="C2C1" from="C2" to="C1" priority="-1">
        <lane id="C2C1_0" index="0" speed="13.89" length="172.80" shape="592.00,586.40 592.00,413.60"/>
        <lane id="C2C1_1" index="1" speed="13.89" length="172.80" shape="595.20,586.40 595.20,413.60"/>
        <lane id="C2C1_2" index="2" speed="13.89" length="172.80" shape="598.40,586.40 598.40,413.60"/>
    </edge>
    <edge id="C2right2" from="C2" to="right2" priority="-1">
        <lane id="C2right2_0" index="0" speed="13.89" length="186.40" shape="613.60,592.00 800.00,592.00"/>
        <lane id="C2right2_1" index="1" speed="13.89" length="186.40" shape="613.60,595.20 800.00,595.20"/>
        <lane id="C2right2_2" index="2" speed="13.89" length="186.40" shape="613.60,598.40 800.00,598.40"/>
    </edge>
    <edge id="C2top2" from="C2" to="top2" priority="-1">
        <lane id="C2top2_0" index="0" speed="13.89" length="186.40" shape="608.00,613.60 608.00,800.00"/>
        <lane id="C2top2_1" index="1" speed="13.89" length="186.40" shape="604.80,613.60 604.80,800.00"/>
        <lane id="C2top2_2" index="2" speed="13.89" length="186.40" shape="601.60,613.60 601.60,800.00"/>
    </edge>
    <edge id="bottom0A0" from="bottom0" to="A0" priority="-1">
        <lane id="bottom0A0_0" index="0" speed="13.89" length="186.40" shape="208.00,0.00 208.00,186.40"/>
        <lane id="bottom0A0_1" index="1" speed="13.89" length="186.40" shape="204.80,0.00 204.80,186.40"/>
        <lane id="bottom0A0_2" index="2" speed="13.89" length="186.40" shape="201.60,0.00 201.60,186.40"/>
    </edge>
    <edge id="bottom1B0" from="bottom1" to="B0" priority="-1">
        <lane id="bottom1B0_0" index="0" speed="13.89" length="186.40" shape="408.00,0.00 408.00,186.40"/>
        <lane id="bottom1B0_1" index="1" speed="13.89" length="186.40" shape="404.80,0.00 404.80,186.40"/>
        <lane id="bottom1B0_2" index="2" speed="13.89" length="186.40" shape="401.60,0.00 401.60,186.40"/>
    </edge>
    <edge id="bottom2C0" from="bottom2" to="C0" priority="-1">
        <lane id="bottom2C0_0" index="0" speed="13.89" length="186.40" shape="608.00,0.00 608.00,186.40"/>
        <lane id="bottom2C0_1" index="1" speed="13.89" length="186.40" shape="604.80,0.00 604.80,186.40"/>
        <lane id="bottom2C0_2" index="2" speed="13.89" length="186.40" shape="601.60,0.00 601.60,186.40"/>
    </edge>
    <edge id="left0A0" from="left0" to="A0" priority="-1">
        <lane id="left0A0_0" index="0" speed="13.89" length="186.40" shape="0.00,192.00 186.40,192.00"/>
        <lane id="left0A0_1" index="1" speed="13.89" length="186.40" shape="0.00,195.20 186.40,195.20"/>