<?xml version="1.0" encoding="UTF-8"?>

<!-- generated on 02/07/22 14:09:28 by Eclipse SUMO netgenerate Version 1.8.0
<configuration xmlns:xsi="http://www.w3.org/2001/XMLSchema-instance" xsi:noNamespaceSchemaLocation="http://sumo.dlr.de/xsd/netgenerateConfiguration.xsd">

    <grid_network>
        <grid value="true"/>
        <grid.number value="4"/>
        <grid.length value="200"/>
        <grid.attach-length value="100"/>
    </grid_network>

    <output>
        <output-file value="grid2.net.xml"/>
    </output>

    <building_defaults>
        <default.lanenumber value="2"/>
        <default-junction-type value="traffic_light"/>
    </building_defaults>

    <junctions>
        <no-turnarounds value="true"/>
        <no-left-connections value="true"/>
    </junctions>

</configuration>
-->

<net version="1.6" junctionCornerDetail="5" limitTurnSpeed="5.50" xmlns:xsi="http://www.w3.org/2001/XMLSchema-instance" xsi:noNamespaceSchemaLocation="http://sumo.dlr.de/xsd/net_file.xsd">

    <location netOffset="0.00,0.00" convBoundary="0.00,0.00,800.00,800.00" origBoundary="0.00,0.00,800.00,800.00" projParameter="!"/>

    <edge id=":A0_0" function="internal">
        <lane id=":A0_0_0" index="0" speed="6.51" length="9.03" shape="95.20,110.40 94.85,107.95 93.80,106.20 92.05,105.15 89.60,104.80"/>
    </edge>
    <edge id=":A0_1" function="internal">
        <lane id=":A0_1_0" index="0" speed="13.89" length="20.80" shape="95.20,110.40 95.20,89.60"/>
        <lane id=":A0_1_1" index="1" speed="13.89" length="20.80" shape="98.40,110.40 98.40,89.60"/>
    </edge>
    <edge id=":A0_3" function="internal">
        <lane id=":A0_3_0" index="0" speed="6.51" length="9.03" shape="110.40,104.80 107.95,105.15 106.20,106.20 105.15,107.95 104.80,110.40"/>
    </edge>
    <edge id=":A0_4" function="internal">
        <lane id=":A0_4_0" index="0" speed="13.89" length="20.80" shape="110.40,104.80 89.60,104.80"/>
        <lane id=":A0_4_1" index="1" speed="13.89" length="20.80" shape="110.40,101.60 89.60,101.60"/>
    </edge>
    <edge id=":A0_6" function="internal">
        <lane id=":A0_6_0" index="0" speed="6.51" length="9.03" shape="104.80,89.60 105.15,92.05 106.20,93.80 107.95,94.85 110.40,95.20"/>
    </edge>
    <edge id=":A0_7" function="internal">
        <lane id=":A0_7_0" index="0" speed="13.89" length="20.80" shape="104.80,89.60 104.80,110.40"/>
        <lane id=":A0_7_1" index="1" speed="13.89" length="20.80" shape="101.60,89.60 101.60,110.40"/>
    </edge>
    <edge id=":A0_9" function="internal">
        <lane id=":A0_9_0" index="0" speed="6.51" length="9.03" shape="89.60,95.20 92.05,94.85 93.80,93.80 94.85,92.05 95.20,89.60"/>
    </edge>
    <edge id=":A0_10" function="internal">
        <lane id=":A0_10_0" index="0" speed="13.89" length="20.80" shape="89.60,95.20 110.40,95.20"/>
        <lane id=":A0_10_1" index="1" speed="13.89" length="20.80" shape="89.60,98.40 110.40,98.40"/>
    </edge>
    <edge id=":A1_0" function="internal">
        <lane id=":A1_0_0" index="0" speed="6.51" length="9.03" shape="95.20,310.40 94.85,307.95 93.80,306.20 92.05,305.15 89.60,304.80"/>
    </edge>
    <edge id=":A1_1" function="internal">
        <lane id=":A1_1_0" index="0" speed="13.89" length="20.80" shape="95.20,310.40 95.20,289.60"/>
        <lane id=":A1_1_1" index="1" speed="13.89" length="20.80" shape="98.40,310.40 98.40,289.60"/>
    </edge>
    <edge id=":A1_3" function="internal">
        <lane id=":A1_3_0" index="0" speed="6.51" length="9.03" shape="110.40,304.80 107.95,305.15 106.20,306.20 105.15,307.95 104.80,310.40"/>
    </edge>
    <edge id=":A1_4" function="internal">
        <lane id=":A1_4_0" index="0" speed="13.89" length="20.80" shape="110.40,304.80 89.60,304.80"/>
        <lane id=":A1_4_1" index="1" speed="13.89" length="20.80" shape="110.40,301.60 89.60,301.60"/>
    </edge>
    <edge id=":A1_6" function="internal">
        <lane id=":A1_6_0" index="0" speed="6.51" length="9.03" shape="104.80,289.60 105.15,292.05 106.20,293.80 107.95,294.85 110.40,295.20"/>
    </edge>
    <edge id=":A1_7" function="internal">
        <lane id=":A1_7_0" index="0" speed="13.89" length="20.80" shape="104.80,289.60 104.80,310.40"/>
        <lane id=":A1_7_1" index="1" speed="13.89" length="20.80" shape="101.60,289.60 101.60,310.40"/>
    </edge>
    <edge id=":A1_9" function="internal">
        <lane id=":A1_9_0" index="0" speed="6.51" length="9.03" shape="89.60,295.20 92.05,294.85 93.80,293.80 94.85,292.05 95.20,289.60"/>
    </edge>
    <edge id=":A1_10" function="internal">
        <lane id=":A1_10_0" index="0" speed="13.89" length="20.80" shape="89.60,295.20 110.40,295.20"/>
        <lane id=":A1_10_1" index="1" speed="13.89" length="20.80" shape="89.60,298.40 110.40,298.40"/>
    </edge>
    <edge id=":A2_0" function="internal">
        <lane id=":A2_0_0" index="0" speed="6.51" length="9.03" shape="95.20,510.40 94.85,507.95 93.80,506.20 92.05,505.15 89.60,504.80"/>
    </edge>
    <edge id=":A2_1" function="internal">
        <lane id=":A2_1_0" index="0" speed="13.89" length="20.80" shape="95.20,510.40 95.20,489.60"/>
        <lane id=":A2_1_1" index="1" speed="13.89" length="20.80" shape="98.40,510.40 98.40,489.60"/>
    </edge>
    <edge id=":A2_3" function="internal">
        <lane id=":A2_3_0" index="0" speed="6.51" length="9.03" shape="110.40,504.80 107.95,505.15 106.20,506.20 105.15,507.95 104.80,510.40"/>
    </edge>
    <edge id=":A2_4" function="internal">
        <lane id=":A2_4_0" index="0" speed="13.89" length="20.80" shape="110.40,504.80 89.60,504.80"/>
        <lane id=":A2_4_1" index="1" speed="13.89" length="20.80" shape="110.40,501.60 89.60,501.60"/>
    </edge>
    <edge id=":A2_6" function="internal">
        <lane id=":A2_6_0" index="0" speed="6.51" length="9.03" shape="104.80,489.60 105.15,492.05 106.20,493.80 107.95,494.85 110.40,495.20"/>
    </edge>
    <edge id=":A2_7" function="internal">
        <lane id=":A2_7_0" index="0" speed="13.89" length="20.80" shape="104.80,489.60 104.80,510.40"/>
        <lane id=":A2_7_1" index="1" speed="13.89" length="20.80" shape="101.60,489.60 101.60,510.40"/>
    </edge>
    <edge id=":A2_9" function="internal">
        <lane id=":A2_9_0" index="0" speed="6.51" length="9.03" shape="89.60,495.20 92.05,494.85 93.80,493.80 94.85,492.05 95.20,489.60"/>
    </edge>
    <edge id=":A2_10" function="internal">
        <lane id=":A2_10_0" index="0" speed="13.89" length="20.80" shape="89.60,495.20 110.40,495.20"/>
        <lane id=":A2_10_1" index="1" speed="13.89" length="20.80" shape="89.60,498.40 110.40,498.40"/>
    </edge>
    <edge id=":A3_0" function="internal">
        <lane id=":A3_0_0" index="0" speed="6.51" length="9.03" shape="95.20,710.40 94.85,707.95 93.80,706.20 92.05,705.15 89.60,704.80"/>
    </edge>
    <edge id=":A3_1" function="internal">
        <lane id=":A3_1_0" index="0" speed="13.89" length="20.80" shape="95.20,710.40 95.20,689.60"/>
        <lane id=":A3_1_1" index="1" speed="13.89" length="20.80" shape="98.40,710.40 98.40,689.60"/>
    </edge>
    <edge id=":A3_3" function="internal">
        <lane id=":A3_3_0" index="0" speed="6.51" length="9.03" shape="110.40,704.80 107.95,705.15 106.20,706.20 105.15,707.95 104.80,710.40"/>
    </edge>
    <edge id=":A3_4" function="internal">
        <lane id=":A3_4_0" index="0" speed="13.89" length="20.80" shape="110.40,704.80 89.60,704.80"/>
        <lane id=":A3_4_1" index="1" speed="13.89" length="20.80" shape="110.40,701.60 89.60,701.60"/>
    </edge>
    <edge id=":A3_6" function="internal">
        <lane id=":A3_6_0" index="0" speed="6.51" length="9.03" shape="104.80,689.60 105.15,692.05 106.20,693.80 107.95,694.85 110.40,695.20"/>
    </edge>
    <edge id=":A3_7" function="internal">
        <lane id=":A3_7_0" index="0" speed="13.89" length="20.80" shape="104.80,689.60 104.80,710.40"/>
        <lane id=":A3_7_1" index="1" speed="13.89" length="20.80" shape="101.60,689.60 101.60,710.40"/>
    </edge>
    <edge id=":A3_9" function="internal">
        <lane id=":A3_9_0" index="0" speed="6.51" length="9.03" shape="89.60,695.20 92.05,694.85 93.80,693.80 94.85,692.05 95.20,689.60"/>
    </edge>
    <edge id=":A3_10" function="internal">
        <lane id=":A3_10_0" index="0" speed="13.89" length="20.80" shape="89.60,695.20 110.40,695.20"/>
        <lane id=":A3_10_1" index="1" speed="13.89" length="20.80" shape="89.60,698.40 110.40,698.40"/>
    </edge>
    <edge id=":B0_0" function="internal">
        <lane id=":B0_0_0" index="0" speed="6.51" length="9.03" shape="295.20,110.40 294.85,107.95 293.80,106.20 292.05,105.15 289.60,104.80"/>
    </edge>
    <edge id=":B0_1" function="internal">
        <lane id=":B0_1_0" index="0" speed="13.89" length="20.80" shape="295.20,110.40 295.20,89.60"/>
        <lane id=":B0_1_1" index="1" speed="13.89" length="20.80" shape="298.40,110.40 298.40,89.60"/>
    </edge>
    <edge id=":B0_3" function="internal">
        <lane id=":B0_3_0" index="0" speed="6.51" length="9.03" shape="310.40,104.80 307.95,105.15 306.20,106.20 305.15,107.95 304.80,110.40"/>
    </edge>
    <edge id=":B0_4" function="internal">
        <lane id=":B0_4_0" index="0" speed="13.89" length="20.80" shape="310.40,104.80 289.60,104.80"/>
        <lane id=":B0_4_1" index="1" speed="13.89" length="20.80" shape="310.40,101.60 289.60,101.60"/>
    </edge>
    <edge id=":B0_6" function="internal">
        <lane id=":B0_6_0" index="0" speed="6.51" length="9.03" shape="304.80,89.60 305.15,92.05 306.20,93.80 307.95,94.85 310.40,95.20"/>
    </edge>
    <edge id=":B0_7" function="internal">
        <lane id=":B0_7_0" index="0" speed="13.89" length="20.80" shape="304.80,89.60 304.80,110.40"/>
        <lane id=":B0_7_1" index="1" speed="13.89" length="20.80" shape="301.60,89.60 301.60,110.40"/>
    </edge>
    <edge id=":B0_9" function="internal">
        <lane id=":B0_9_0" index="0" speed="6.51" length="9.03" shape="289.60,95.20 292.05,94.85 293.80,93.80 294.85,92.05 295.20,89.60"/>
    </edge>
    <edge id=":B0_10" function="internal">
        <lane id=":B0_10_0" index="0" speed="13.89" length="20.80" shape="289.60,95.20 310.40,95.20"/>
        <lane id=":B0_10_1" index="1" speed="13.89" length="20.80" shape="289.60,98.40 310.40,98.40"/>
    </edge>
    <edge id=":B1_0" function="internal">
        <lane id=":B1_0_0" index="0" speed="6.51" length="9.03" shape="295.20,310.40 294.85,307.95 293.80,306.20 292.05,305.15 289.60,304.80"/>
    </edge>
    <edge id=":B1_1" function="internal">
        <lane id=":B1_1_0" index="0" speed="13.89" length="20.80" shape="295.20,310.40 295.20,289.60"/>
        <lane id=":B1_1_1" index="1" speed="13.89" length="20.80" shape="298.40,310.40 298.40,289.60"/>
    </edge>
    <edge id=":B1_3" function="internal">
        <lane id=":B1_3_0" index="0" speed="6.51" length="9.03" shape="310.40,304.80 307.95,305.15 306.20,306.20 305.15,307.95 304.80,310.40"/>
    </edge>
    <edge id=":B1_4" function="internal">
        <lane id=":B1_4_0" index="0" speed="13.89" length="20.80" shape="310.40,304.80 289.60,304.80"/>
        <lane id=":B1_4_1" index="1" speed="13.89" length="20.80" shape="310.40,301.60 289.60,301.60"/>
    </edge>
    <edge id=":B1_6" function="internal">
        <lane id=":B1_6_0" index="0" speed="6.51" length="9.03" shape="304.80,289.60 305.15,292.05 306.20,293.80 307.95,294.85 310.40,295.20"/>
    </edge>
    <edge id=":B1_7" function="internal">
        <lane id=":B1_7_0" index="0" speed="13.89" length="20.80" shape="304.80,289.60 304.80,310.40"/>
        <lane id=":B1_7_1" index="1" speed="13.89" length="20.80" shape="301.60,289.60 301.60,310.40"/>
    </edge>
    <edge id=":B1_9" function="internal">
        <lane id=":B1_9_0" index="0" speed="6.51" length="9.03" shape="289.60,295.20 292.05,294.85 293.80,293.80 294.85,292.05 295.20,289.60"/>
    </edge>
    <edge id=":B1_10" function="internal">
        <lane id=":B1_10_0" index="0" speed="13.89" length="20.80" shape="289.60,295.20 310.40,295.20"/>
        <lane id=":B1_10_1" index="1" speed="13.89" length="20.80" shape="289.60,298.40 310.40,298.40"/>
    </edge>
    <edge id=":B2_0" function="internal">
        <lane id=":B2_0_0" index="0" speed="6.51" length="9.03" shape="295.20,510.40 294.85,507.95 293.80,506.20 292.05,505.15 289.60,504.80"/>
    </edge>
    <edge id=":B2_1" function="internal">
        <lane id=":B2_1_0" index="0" speed="13.89" length="20.80" shape="295.20,510.40 295.20,489.60"/>
        <lane id=":B2_1_1" index="1" speed="13.89" length="20.80" shape="298.40,510.40 298.40,489.60"/>
    </edge>
    <edge id=":B2_3" function="internal">
        <lane id=":B2_3_0" index="0" speed="6.51" length="9.03" shape="310.40,504.80 307.95,505.15 306.20,506.20 305.15,507.95 304.80,510.40"/>
    </edge>
    <edge id=":B2_4" function="internal">
        <lane id=":B2_4_0" index="0" speed="13.89" length="20.80" shape="310.40,504.80 289.60,504.80"/>
        <lane id=":B2_4_1" index="1" speed="13.89" length="20.80" shape="310.40,501.60 289.60,501.60"/>
    </edge>
    <edge id=":B2_6" function="internal">
        <lane id=":B2_6_0" index="0" speed="6.51" length="9.03" shape="304.80,489.60 305.15,492.05 306.20,493.80 307.95,494.85 310.40,495.20"/>
    </edge>
    <edge id=":B2_7" function="internal">
        <lane id=":B2_7_0" index="0" speed="13.89" length="20.80" shape="304.80,489.60 304.80,510.40"/>
        <lane id=":B2_7_1" index="1" speed="13.89" length="20.80" shape="301.60,489.60 301.60,510.40"/>
    </edge>
    <edge id=":B2_9" function="internal">
        <lane id=":B2_9_0" index="0" speed="6.51" length="9.03" shape="289.60,495.20 292.05,494.85 293.80,493.80 294.85,492.05 295.20,489.60"/>
    </edge>
    <edge id=":B2_10" function="internal">
        <lane id=":B2_10_0" index="0" speed="13.89" length="20.80" shape="289.60,495.20 310.40,495.20"/>
        <lane id=":B2_10_1" index="1" speed="13.89" length="20.80" shape="289.60,498.40 310.40,498.40"/>
    </edge>
    <edge id=":B3_0" function="internal">
        <lane id=":B3_0_0" index="0" speed="6.51" length="9.03" shape="295.20,710.40 294.85,707.95 293.80,706.20 292.05,705.15 289.60,704.80"/>
    </edge>
    <edge id=":B3_1" function="internal">
        <lane id=":B3_1_0" index="0" speed="13.89" length="20.80" shape="295.20,710.40 295.20,689.60"/>
        <lane id=":B3_1_1" index="1" speed="13.89" length="20.80" shape="298.40,710.40 298.40,689.60"/>
    </edge>
    <edge id=":B3_3" function="internal">
        <lane id=":B3_3_0" index="0" speed="6.51" length="9.03" shape="310.40,704.80 307.95,705.15 306.20,706.20 305.15,707.95 304.80,710.40"/>
    </edge>
    <edge id=":B3_4" function="internal">
        <lane id=":B3_4_0" index="0" speed="13.89" length="20.80" shape="310.40,704.80 289.60,704.80"/>
        <lane id=":B3_4_1" index="1" speed="13.89" length="20.80" shape="310.40,701.60 289.60,701.60"/>
    </edge>
    <edge id=":B3_6" function="internal">
        <lane id=":B3_6_0" index="0" speed="6.51" length="9.03" shape="304.80,689.60 305.15,692.05 306.20,693.80 307.95,694.85 310.40,695.20"/>
    </edge>
    <edge id=":B3_7" function="internal">
        <lane id=":B3_7_0" index="0" speed="13.89" length="20.80" shape="304.80,689.60 304.80,710.40"/>
        <lane id=":B3_7_1" index="1" speed="13.89" length="20.80" shape="301.60,689.60 301.60,710.40"/>
    </edge>
    <edge id=":B3_9" function="internal">
        <lane id=":B3_9_0" index="0" speed="6.51" length="9.03" shape="289.60,695.20 292.05,694.85 293.80,693.80 294.85,692.05 295.20,689.60"/>
    </edge>
    <edge id=":B3_10" function="internal">
        <lane id=":B3_10_0" index="0" speed="13.89" length="20.80" shape="289.60,695.20 310.40,695.20"/>
        <lane id=":B3_10_1" index="1" speed="13.89" length="20.80" shape="289.60,698.40 310.40,698.40"/>
    </edge>
    <edge id=":C0_0" function="internal">
        <lane id=":C0_0_0" index="0" speed="6.51" length="9.03" shape="495.20,110.40 494.85,107.95 493.80,106.20 492.05,105.15 489.60,104.80"/>
    </edge>
    <edge id=":C0_1" function="internal">
        <lane id=":C0_1_0" index="0" speed="13.89" length="20.80" shape="495.20,110.40 495.20,89.60"/>
        <lane id=":C0_1_1" index="1" speed="13.89" length="20.80" shape="498.40,110.40 498.40,89.60"/>
    </edge>
    <edge id=":C0_3" function="internal">
        <lane id=":C0_3_0" index="0" speed="6.51" length="9.03" shape="510.40,104.80 507.95,105.15 506.20,106.20 505.15,107.95 504.80,110.40"/>
    </edge>
    <edge id=":C0_4" function="internal">
        <lane id=":C0_4_0" index="0" speed="13.89" length="20.80" shape="510.40,104.80 489.60,104.80"/>
        <lane id=":C0_4_1" index="1" speed="13.89" length="20.80" shape="510.40,101.60 489.60,101.60"/>
    </edge>
    <edge id=":C0_6" function="internal">
        <lane id=":C0_6_0" index="0" speed="6.51" length="9.03" shape="504.80,89.60 505.15,92.05 506.20,93.80 507.95,94.85 510.40,95.20"/>
    </edge>
    <edge id=":C0_7" function="internal">
        <lane id=":C0_7_0" index="0" speed="13.89" length="20.80" shape="504.80,89.60 504.80,110.40"/>
        <lane id=":C0_7_1" index="1" speed="13.89" length="20.80" shape="501.60,89.60 501.60,110.40"/>
    </edge>
    <edge id=":C0_9" function="internal">
        <lane id=":C0_9_0" index="0" speed="6.51" length="9.03" shape="489.60,95.20 492.05,94.85 493.80,93.80 494.85,92.05 495.20,89.60"/>
    </edge>
    <edge id=":C0_10" function="internal">
        <lane id=":C0_10_0" index="0" speed="13.89" length="20.80" shape="489.60,95.20 510.40,95.20"/>
        <lane id=":C0_10_1" index="1" speed="13.89" length="20.80" shape="489.60,98.40 510.40,98.40"/>
    </edge>
    <edge id=":C1_0" function="internal">
        <lane id=":C1_0_0" index="0" speed="6.51" length="9.03" shape="495.20,310.40 494.85,307.95 493.80,306.20 492.05,305.15 489.60,304.80"/>
    </edge>
    <edge id=":C1_1" function="internal">
        <lane id=":C1_1_0" index="0" speed="13.89" length="20.80" shape="495.20,310.40 495.20,289.60"/>
        <lane id=":C1_1_1" index="1" speed="13.89" length="20.80" shape="498.40,310.40 498.40,289.60"/>
    </edge>
    <edge id=":C1_3" function="internal">
        <lane id=":C1_3_0" index="0" speed="6.51" length="9.03" shape="510.40,304.80 507.95,305.15 506.20,306.20 505.15,307.95 504.80,310.40"/>
    </edge>
    <edge id=":C1_4" function="internal">
        <lane id=":C1_4_0" index="0" speed="13.89" length="20.80" shape="510.40,304.80 489.60,304.80"/>
        <lane id=":C1_4_1" index="1" speed="13.89" length="20.80" shape="510.40,301.60 489.60,301.60"/>
    </edge>
    <edge id=":C1_6" function="internal">
        <lane id=":C1_6_0" index="0" speed="6.51" length="9.03" shape="504.80,289.60 505.15,292.05 506.20,293.80 507.95,294.85 510.40,295.20"/>
    </edge>
    <edge id=":C1_7" function="internal">
        <lane id=":C1_7_0" index="0" speed="13.89" length="20.80" shape="504.80,289.60 504.80,310.40"/>
        <lane id=":C1_7_1" index="1" speed="13.89" length="20.80" shape="501.60,289.60 501.60,310.40"/>
    </edge>
    <edge id=":C1_9" function="internal">
        <lane id=":C1_9_0" index="0" speed="6.51" length="9.03" shape="489.60,295.20 492.05,294.85 493.80,293.80 494.85,292.05 495.20,289.60"/>
    </edge>
    <edge id=":C1_10" function="internal">
        <lane id=":C1_10_0" index="0" speed="13.89" length="20.80" shape="489.60,295.20 510.40,295.20"/>
        <lane id=":C1_10_1" index="1" speed="13.89" length="20.80" shape="489.60,298.40 510.40,298.40"/>
    </edge>
    <edge id=":C2_0" function="internal">
        <lane id=":C2_0_0" index="0" speed="6.51" length="9.03" shape="495.20,510.40 494.85,507.95 493.80,506.20 492.05,505.15 489.60,504.80"/>
    </edge>
    <edge id=":C2_1" function="internal">
        <lane id=":C2_1_0" index="0" speed="13.89" length="20.80" shape="495.20,510.40 495.20,489.60"/>
        <lane id=":C2_1_1" index="1" speed="13.89" length="20.80" shape="498.40,510.40 498.40,489.60"/>
    </edge>
    <edge id=":C2_3" function="internal">
        <lane id=":C2_3_0" index="0" speed="6.51" length="9.03" shape="510.40,504.80 507.95,505.15 506.20,506.20 505.15,507.95 504.80,510.40"/>
    </edge>
    <edge id=":C2_4" function="internal">
        <lane id=":C2_4_0" index="0" speed="13.89" length="20.80" shape="510.40,504.80 489.60,504.80"/>
        <lane id=":C2_4_1" index="1" speed="13.89" length="20.80" shape="510.40,501.60 489.60,501.60"/>
    </edge>
    <edge id=":C2_6" function="internal">
        <lane id=":C2_6_0" index="0" speed="6.51" length="9.03" shape="504.80,489.60 505.15,492.05 506.20,493.80 507.95,494.85 510.40,495.20"/>
    </edge>
    <edge id=":C2_7" function="internal">
        <lane id=":C2_7_0" index="0" speed="13.89" length="20.80" shape="504.80,489.60 504.80,510.40"/>
        <lane id=":C2_7_1" index="1" speed="13.89" length="20.80" shape="501.60,489.60 501.60,510.40"/>
    </edge>
    <edge id=":C2_9" function="internal">
        <lane id=":C2_9_0" index="0" speed="6.51" length="9.03" shape="489.60,495.20 492.05,494.85 493.80,493.80 494.85,492.05 495.20,489.60"/>
    </edge>
    <edge id=":C2_10" function="internal">
        <lane id=":C2_10_0" index="0" speed="13.89" length="20.80" shape="489.60,495.20 510.40,495.20"/>
        <lane id=":C2_10_1" index="1" speed="13.89" length="20.80" shape="489.60,498.40 510.40,498.40"/>
    </edge>
    <edge id=":C3_0" function="internal">
        <lane id=":C3_0_0" index="0" speed="6.51" length="9.03" shape="495.20,710.40 494.85,707.95 493.80,706.20 492.05,705.15 489.60,704.80"/>
    </edge>
    <edge id=":C3_1" function="internal">
        <lane id=":C3_1_0" index="0" speed="13.89" length="20.80" shape="495.20,710.40 495.20,689.60"/>
        <lane id=":C3_1_1" index="1" speed="13.89" length="20.80" shape="498.40,710.40 498.40,689.60"/>
    </edge>
    <edge id=":C3_3" function="internal">
        <lane id=":C3_3_0" index="0" speed="6.51" length="9.03" shape="510.40,704.80 507.95,705.15 506.20,706.20 505.15,707.95 504.80,710.40"/>
    </edge>
    <edge id=":C3_4" function="internal">
        <lane id=":C3_4_0" index="0" speed="13.89" length="20.80" shape="510.40,704.80 489.60,704.80"/>
        <lane id=":C3_4_1" index="1" speed="13.89" length="20.80" shape="510.40,701.60 489.60,701.60"/>
    </edge>
    <edge id=":C3_6" function="internal">
        <lane id=":C3_6_0" index="0" speed="6.51" length="9.03" shape="504.80,689.60 505.15,692.05 506.20,693.80 507.95,694.85 510.40,695.20"/>
    </edge>
    <edge id=":C3_7" function="internal">
        <lane id=":C3_7_0" index="0" speed="13.89" length="20.80" shape="504.80,689.60 504.80,710.40"/>
        <lane id=":C3_7_1" index="1" speed="13.89" length="20.80" shape="501.60,689.60 501.60,710.40"/>
    </edge>
    <edge id=":C3_9" function="internal">
        <lane id=":C3_9_0" index="0" speed="6.51" length="9.03" shape="489.60,695.20 492.05,694.85 493.80,693.80 494.85,692.05 495.20,689.60"/>
    </edge>
    <edge id=":C3_10" function="internal">
        <lane id=":C3_10_0" index="0" speed="13.89" length="20.80" shape="489.60,695.20 510.40,695.20"/>
        <lane id=":C3_10_1" index="1" speed="13.89" length="20.80" shape="489.60,698.40 510.40,698.40"/>
    </edge>
    <edge id=":D0_0" function="internal">
        <lane id=":D0_0_0" index="0" speed="6.51" length="9.03" shape="695.20,110.40 694.85,107.95 693.80,106.20 692.05,105.15 689.60,104.80"/>
    </edge>
    <edge id=":D0_1" function="internal">
        <lane id=":D0_1_0" index="0" speed="13.89" length="20.80" shape="695.20,110.40 695.20,89.60"/>
        <lane id=":D0_1_1" index="1" speed="13.89" length="20.80" shape="698.40,110.40 698.40,89.60"/>
    </edge>
    <edge id=":D0_3" function="internal">
        <lane id=":D0_3_0" index="0" speed="6.51" length="9.03" shape="710.40,104.80 707.95,105.15 706.20,106.20 705.15,107.95 704.80,110.40"/>
    </edge>
    <edge id=":D0_4" function="internal">
        <lane id=":D0_4_0" index="0" speed="13.89" length="20.80" shape="710.40,104.80 689.60,104.80"/>
        <lane id=":D0_4_1" index="1" speed="13.89" length="20.80" shape="710.40,101.60 689.60,101.60"/>
    </edge>
    <edge id=":D0_6" function="internal">
        <lane id=":D0_6_0" index="0" speed="6.51" length="9.03" shape="704.80,89.60 705.15,92.05 706.20,93.80 707.95,94.85 710.40,95.20"/>
    </edge>
    <edge id=":D0_7" function="internal">
        <lane id=":D0_7_0" index="0" speed="13.89" length="20.80" shape="704.80,89.60 704.80,110.40"/>
        <lane id=":D0_7_1" index="1" speed="13.89" length="20.80" shape="701.60,89.60 701.60,110.40"/>
    </edge>
    <edge id=":D0_9" function="internal">
        <lane id=":D0_9_0" index="0" speed="6.51" length="9.03" shape="689.60,95.20 692.05,94.85 693.80,93.80 694.85,92.05 695.20,89.60"/>
    </edge>
    <edge id=":D0_10" function="internal">
        <lane id=":D0_10_0" index="0" speed="13.89" length="20.80" shape="689.60,95.20 710.40,95.20"/>
        <lane id=":D0_10_1" index="1" speed="13.89" length="20.80" shape="689.60,98.40 710.40,98.40"/>
    </edge>
    <edge id=":D1_0" function="internal">
        <lane id=":D1_0_0" index="0" speed="6.51" length="9.03" shape="695.20,310.40 694.85,307.95 693.80,306.20 692.05,305.15 689.60,304.80"/>
    </edge>
    <edge id=":D1_1" function="internal">
        <lane id=":D1_1_0" index="0" speed="13.89" length="20.80" shape="695.20,310.40 695.20,289.60"/>
        <lane id=":D1_1_1" index="1" speed="13.89" length="20.80" shape="698.40,310.40 698.40,289.60"/>
    </edge>
    <edge id=":D1_3" function="internal">
        <lane id=":D1_3_0" index="0" speed="6.51" length="9.03" shape="710.40,304.80 707.95,305.15 706.20,306.20 705.15,307.95 704.80,310.40"/>
    </edge>
    <edge id=":D1_4" function="internal">
        <lane id=":D1_4_0" index="0" speed="13.89" length="20.80" shape="710.40,304.80 689.60,304.80"/>
        <lane id=":D1_4_1" index="1" speed="13.89" length="20.80" shape="710.40,301.60 689.60,301.60"/>
    </edge>
    <edge id=":D1_6" function="internal">
        <lane id=":D1_6_0" index="0" speed="6.51" length="9.03" shape="704.80,289.60 705.15,292.05 706.20,293.80 707.95,294.85 710.40,295.20"/>
    </edge>
    <edge id=":D1_7" function="internal">
        <lane id=":D1_7_0" index="0" speed="13.89" length="20.80" shape="704.80,289.60 704.80,310.40"/>
        <lane id=":D1_7_1" index="1" speed="13.89" length="20.80" shape="701.60,289.60 701.60,310.40"/>
    </edge>
    <edge id=":D1_9" function="internal">
        <lane id=":D1_9_0" index="0" speed="6.51" length="9.03" shape="689.60,295.20 692.05,294.85 693.80,293.80 694.85,292.05 695.20,289.60"/>
    </edge>
    <edge id=":D1_10" function="internal">
        <lane id=":D1_10_0" index="0" speed="13.89" length="20.80" shape="689.60,295.20 710.40,295.20"/>
        <lane id=":D1_10_1" index="1" speed="13.89" length="20.80" shape="689.60,298.40 710.40,298.40"/>
    </edge>
    <edge id=":D2_0" function="internal">
        <lane id=":D2_0_0" index="0" speed="6.51" length="9.03" shape="695.20,510.40 694.85,507.95 693.80,506.20 692.05,505.15 689.60,504.80"/>
    </edge>
    <edge id=":D2_1" function="internal">
        <lane id=":D2_1_0" index="0" speed="13.89" length="20.80" shape="695.20,510.40 695.20,489.60"/>
        <lane id=":D2_1_1" index="1" speed="13.89" length="20.80" shape="698.40,510.40 698.40,489.60"/>
    </edge>
    <edge id=":D2_3" function="internal">
        <lane id=":D2_3_0" index="0" speed="6.51" length="9.03" shape="710.40,504.80 707.95,505.15 706.20,506.20 705.15,507.95 704.80,510.40"/>
    </edge>
    <edge id=":D2_4" function="internal">
        <lane id=":D2_4_0" index="0" speed="13.89" length="20.80" shape="710.40,504.80 689.60,504.80"/>
        <lane id=":D2_4_1" index="1" speed="13.89" length="20.80" shape="710.40,501.60 689.60,501.60"/>
    </edge>
    <edge id=":D2_6" function="internal">
        <lane id=":D2_6_0" index="0" speed="6.51" length="9.03" shape="704.80,489.60 705.15,492.05 706.20,493.80 707.95,494.85 710.40,495.20"/>
    </edge>
    <edge id=":D2_7" function="internal">
        <lane id=":D2_7_0" index="0" speed="13.89" length="20.80" shape="704.80,489.60 704.80,510.40"/>
        <lane id=":D2_7_1" index="1" speed="13.89" length="20.80" shape="701.60,489.60 701.60,510.40"/>
    </edge>
    <edge id=":D2_9" function="internal">
        <lane id=":D2_9_0" index="0" speed="6.51" length="9.03" shape="689.60,495.20 692.05,494.85 693.80,493.80 694.85,492.05 695.20,489.60"/>
    </edge>
    <edge id=":D2_10" function="internal">
        <lane id=":D2_10_0" index="0" speed="13.89" length="20.80" shape="689.60,495.20 710.40,495.20"/>
        <lane id=":D2_10_1" index="1" speed="13.89" length="20.80" shape="689.60,498.40 710.40,498.40"/>
    </edge>
    <edge id=":D3_0" function="internal">
        <lane id=":D3_0_0" index="0" speed="6.51" length="9.03" shape="695.20,710.40 694.85,707.95 693.80,706.20 692.05,705.15 689.60,704.80"/>
    </edge>
    <edge id=":D3_1" function="internal">
        <lane id=":D3_1_0" index="0" speed="13.89" length="20.80" shape="695.20,710.40 695.20,689.60"/>
        <lane id=":D3_1_1" index="1" speed="13.89" length="20.80" shape="698.40,710.40 698.40,689.60"/>
    </edge>
    <edge id=":D3_3" function="internal">
        <lane id=":D3_3_0" index="0" speed="6.51" length="9.03" shape="710.40,704.80 707.95,705.15 706.20,706.20 705.15,707.95 704.80,710.40"/>
    </edge>
    <edge id=":D3_4" function="internal">
        <lane id=":D3_4_0" index="0" speed="13.89" length="20.80" shape="710.40,704.80 689.60,704.80"/>
        <lane id=":D3_4_1" index="1" speed="13.89" length="20.80" shape="710.40,701.60 689.60,701.60"/>
    </edge>
    <edge id=":D3_6" function="internal">
        <lane id=":D3_6_0" index="0" speed="6.51" length="9.03" shape="704.80,689.60 705.15,692.05 706.20,693.80 707.95,694.85 710.40,695.20"/>
    </edge>
    <edge id=":D3_7" function="internal">
        <lane id=":D3_7_0" index="0" speed="13.89" length="20.80" shape="704.80,689.60 704.80,710.40"/>