<?xml version="1.0" encoding="UTF-8"?>

<!-- generated on 2022-02-21 21:30:26 by Eclipse SUMO netedit Version 1.12.0
<configuration xmlns:xsi="http://www.w3.org/2001/XMLSchema-instance" xsi:noNamespaceSchemaLocation="http://sumo.dlr.de/xsd/netconvertConfiguration.xsd">

    <input>
        <sumo-net-file value="grid-7x7.net.xml"/>
    </input>

    <output>
        <output-file value="grid-7x7.net.xml"/>
    </output>

    <processing>
        <geometry.min-radius.fix.railways value="false"/>
        <geometry.max-grade.fix value="false"/>
        <offset.disable-normalization value="true"/>
        <lefthand value="false"/>
    </processing>

    <junctions>
        <no-turnarounds value="true"/>
        <junctions.corner-detail value="5"/>
        <junctions.limit-turn-speed value="5.5"/>
        <rectangular-lane-cut value="false"/>
    </junctions>

    <pedestrian>
        <walkingareas value="false"/>
    </pedestrian>

    <report>
        <aggregate-warnings value="5"/>
    </report>

</configuration>
-->

<net version="1.9" junctionCornerDetail="5" limitTurnSpeed="5.50" xmlns:xsi="http://www.w3.org/2001/XMLSchema-instance" xsi:noNamespaceSchemaLocation="http://sumo.dlr.de/xsd/net_file.xsd">

    <location netOffset="0.00,0.00" convBoundary="0.00,0.00,800.00,800.00" origBoundary="0.00,0.00,800.00,800.00" projParameter="!"/>

    <edge id=":A0_0" function="internal">
        <lane id=":A0_0_0" index="0" speed="13.89" length="14.40" shape="98.40,107.20 98.40,92.80"/>
    </edge>
    <edge id=":A0_1" function="internal">
        <lane id=":A0_1_0" index="0" speed="13.89" length="14.40" shape="107.20,101.60 92.80,101.60"/>
    </edge>
    <edge id=":A0_2" function="internal">
        <lane id=":A0_2_0" index="0" speed="13.89" length="14.40" shape="101.60,92.80 101.60,107.20"/>
    </edge>
    <edge id=":A0_3" function="internal">
        <lane id=":A0_3_0" index="0" speed="13.89" length="14.40" shape="92.80,98.40 107.20,98.40"/>
    </edge>
    <edge id=":A1_0" function="internal">
        <lane id=":A1_0_0" index="0" speed="13.89" length="20.80" shape="98.40,210.40 98.40,189.60"/>
    </edge>
    <edge id=":A1_1" function="internal">
        <lane id=":A1_1_0" index="0" speed="13.89" length="14.40" shape="107.20,204.80 92.80,204.80"/>
        <lane id=":A1_1_1" index="1" speed="13.89" length="14.40" shape="107.20,201.60 92.80,201.60"/>
    </edge>
    <edge id=":A1_3" function="internal">
        <lane id=":A1_3_0" index="0" speed="13.89" length="20.80" shape="101.60,189.60 101.60,210.40"/>
    </edge>
    <edge id=":A1_4" function="internal">
        <lane id=":A1_4_0" index="0" speed="13.89" length="14.40" shape="92.80,195.20 107.20,195.20"/>
        <lane id=":A1_4_1" index="1" speed="13.89" length="14.40" shape="92.80,198.40 107.20,198.40"/>
    </edge>
    <edge id=":A2_0" function="internal">
        <lane id=":A2_0_0" index="0" speed="13.89" length="27.20" shape="98.40,313.60 98.40,286.40"/>
    </edge>
    <edge id=":A2_1" function="internal">
        <lane id=":A2_1_0" index="0" speed="13.89" length="14.40" shape="107.20,308.00 92.80,308.00"/>
        <lane id=":A2_1_1" index="1" speed="13.89" length="14.40" shape="107.20,304.80 92.80,304.80"/>
        <lane id=":A2_1_2" index="2" speed="13.89" length="14.40" shape="107.20,301.60 92.80,301.60"/>
    </edge>
    <edge id=":A2_4" function="internal">
        <lane id=":A2_4_0" index="0" speed="13.89" length="27.20" shape="101.60,286.40 101.60,313.60"/>
    </edge>
    <edge id=":A2_5" function="internal">
        <lane id=":A2_5_0" index="0" speed="13.89" length="14.40" shape="92.80,292.00 107.20,292.00"/>
        <lane id=":A2_5_1" index="1" speed="13.89" length="14.40" shape="92.80,295.20 107.20,295.20"/>
        <lane id=":A2_5_2" index="2" speed="13.89" length="14.40" shape="92.80,298.40 107.20,298.40"/>
    </edge>
    <edge id=":A3_0" function="internal">
        <lane id=":A3_0_0" index="0" speed="13.89" length="33.60" shape="98.40,416.80 98.40,383.20"/>
    </edge>
    <edge id=":A3_1" function="internal">
        <lane id=":A3_1_0" index="0" speed="13.89" length="14.40" shape="107.20,411.20 92.80,411.20"/>
        <lane id=":A3_1_1" index="1" speed="13.89" length="14.40" shape="107.20,408.00 92.80,408.00"/>
        <lane id=":A3_1_2" index="2" speed="13.89" length="14.40" shape="107.20,404.80 92.80,404.80"/>
        <lane id=":A3_1_3" index="3" speed="13.89" length="14.40" shape="107.20,401.60 92.80,401.60"/>
    </edge>
    <edge id=":A3_5" function="internal">
        <lane id=":A3_5_0" index="0" speed="13.89" length="33.60" shape="101.60,383.20 101.60,416.80"/>
    </edge>
    <edge id=":A3_6" function="internal">
        <lane id=":A3_6_0" index="0" speed="13.89" length="14.40" shape="92.80,388.80 107.20,388.80"/>
        <lane id=":A3_6_1" index="1" speed="13.89" length="14.40" shape="92.80,392.00 107.20,392.00"/>
        <lane id=":A3_6_2" index="2" speed="13.89" length="14.40" shape="92.80,395.20 107.20,395.20"/>
        <lane id=":A3_6_3" index="3" speed="13.89" length="14.40" shape="92.80,398.40 107.20,398.40"/>
    </edge>
    <edge id=":A4_0" function="internal">
        <lane id=":A4_0_0" index="0" speed="13.89" length="27.20" shape="98.40,513.60 98.40,486.40"/>
    </edge>
    <edge id=":A4_1" function="internal">
        <lane id=":A4_1_0" index="0" speed="13.89" length="14.40" shape="107.20,508.00 92.80,508.00"/>
        <lane id=":A4_1_1" index="1" speed="13.89" length="14.40" shape="107.20,504.80 92.80,504.80"/>
        <lane id=":A4_1_2" index="2" speed="13.89" length="14.40" shape="107.20,501.60 92.80,501.60"/>
    </edge>
    <edge id=":A4_4" function="internal">
        <lane id=":A4_4_0" index="0" speed="13.89" length="27.20" shape="101.60,486.40 101.60,513.60"/>
    </edge>
    <edge id=":A4_5" function="internal">
        <lane id=":A4_5_0" index="0" speed="13.89" length="14.40" shape="92.80,492.00 107.20,492.00"/>
        <lane id=":A4_5_1" index="1" speed="13.89" length="14.40" shape="92.80,495.20 107.20,495.20"/>
        <lane id=":A4_5_2" index="2" speed="13.89" length="14.40" shape="92.80,498.40 107.20,498.40"/>
    </edge>
    <edge id=":A5_0" function="internal">
        <lane id=":A5_0_0" index="0" speed="13.89" length="20.80" shape="98.40,610.40 98.40,589.60"/>
    </edge>
    <edge id=":A5_1" function="internal">
        <lane id=":A5_1_0" index="0" speed="13.89" length="14.40" shape="107.20,604.80 92.80,604.80"/>
        <lane id=":A5_1_1" index="1" speed="13.89" length="14.40" shape="107.20,601.60 92.80,601.60"/>
    </edge>
    <edge id=":A5_3" function="internal">
        <lane id=":A5_3_0" index="0" speed="13.89" length="20.80" shape="101.60,589.60 101.60,610.40"/>
    </edge>
    <edge id=":A5_4" function="internal">
        <lane id=":A5_4_0" index="0" speed="13.89" length="14.40" shape="92.80,595.20 107.20,595.20"/>
        <lane id=":A5_4_1" index="1" speed="13.89" length="14.40" shape="92.80,598.40 107.20,598.40"/>
    </edge>
    <edge id=":A6_0" function="internal">
        <lane id=":A6_0_0" index="0" speed="13.89" length="14.40" shape="98.40,707.20 98.40,692.80"/>
    </edge>
    <edge id=":A6_1" function="internal">
        <lane id=":A6_1_0" index="0" speed="13.89" length="14.40" shape="107.20,701.60 92.80,701.60"/>
    </edge>
    <edge id=":A6_2" function="internal">
        <lane id=":A6_2_0" index="0" speed="13.89" length="14.40" shape="101.60,692.80 101.60,707.20"/>
    </edge>
    <edge id=":A6_3" function="internal">
        <lane id=":A6_3_0" index="0" speed="13.89" length="14.40" shape="92.80,698.40 107.20,698.40"/>
    </edge>
    <edge id=":B0_0" function="internal">
        <lane id=":B0_0_0" index="0" speed="13.89" length="14.40" shape="195.20,107.20 195.20,92.80"/>
        <lane id=":B0_0_1" index="1" speed="13.89" length="14.40" shape="198.40,107.20 198.40,92.80"/>
    </edge>
    <edge id=":B0_2" function="internal">
        <lane id=":B0_2_0" index="0" speed="13.89" length="20.80" shape="210.40,101.60 189.60,101.60"/>
    </edge>
    <edge id=":B0_3" function="internal">
        <lane id=":B0_3_0" index="0" speed="13.89" length="14.40" shape="204.80,92.80 204.80,107.20"/>
        <lane id=":B0_3_1" index="1" speed="13.89" length="14.40" shape="201.60,92.80 201.60,107.20"/>
    </edge>
    <edge id=":B0_5" function="internal">
        <lane id=":B0_5_0" index="0" speed="13.89" length="20.80" shape="189.60,98.40 210.40,98.40"/>
    </edge>
    <edge id=":B1_0" function="internal">
        <lane id=":B1_0_0" index="0" speed="13.89" length="20.80" shape="195.20,210.40 195.20,189.60"/>
        <lane id=":B1_0_1" index="1" speed="13.89" length="20.80" shape="198.40,210.40 198.40,189.60"/>
    </edge>
    <edge id=":B1_2" function="internal">
        <lane id=":B1_2_0" index="0" speed="13.89" length="20.80" shape="210.40,204.80 189.60,204.80"/>
        <lane id=":B1_2_1" index="1" speed="13.89" length="20.80" shape="210.40,201.60 189.60,201.60"/>
    </edge>
    <edge id=":B1_4" function="internal">
        <lane id=":B1_4_0" index="0" speed="13.89" length="20.80" shape="204.80,189.60 204.80,210.40"/>
        <lane id=":B1_4_1" index="1" speed="13.89" length="20.80" shape="201.60,189.60 201.60,210.40"/>
    </edge>
    <edge id=":B1_6" function="internal">
        <lane id=":B1_6_0" index="0" speed="13.89" length="20.80" shape="189.60,195.20 210.40,195.20"/>
        <lane id=":B1_6_1" index="1" speed="13.89" length="20.80" shape="189.60,198.40 210.40,198.40"/>
    </edge>
    <edge id=":B2_0" function="internal">
        <lane id=":B2_0_0" index="0" speed="13.89" length="27.20" shape="195.20,313.60 195.20,286.40"/>
        <lane id=":B2_0_1" index="1" speed="13.89" length="27.20" shape="198.40,313.60 198.40,286.40"/>
    </edge>
    <edge id=":B2_2" function="internal">
        <lane id=":B2_2_0" index="0" speed="13.89" length="20.80" shape="210.40,308.00 189.60,308.00"/>
        <lane id=":B2_2_1" index="1" speed="13.89" length="20.80" shape="210.40,304.80 189.60,304.80"/>
        <lane id=":B2_2_2" index="2" speed="13.89" length="20.80" shape="210.40,301.60 189.60,301.60"/>
    </edge>
    <edge id=":B2_5" function="internal">
        <lane id=":B2_5_0" index="0" speed="13.89" length="27.20" shape="204.80,286.40 204.80,313.60"/>
        <lane id=":B2_5_1" index="1" speed="13.89" length="27.20" shape="201.60,286.40 201.60,313.60"/>
    </edge>
    <edge id=":B2_7" function="internal">
        <lane id=":B2_7_0" index="0" speed="13.89" length="20.80" shape="189.60,292.00 210.40,292.00"/>
        <lane id=":B2_7_1" index="1" speed="13.89" length="20.80" shape="189.60,295.20 210.40,295.20"/>
        <lane id=":B2_7_2" index="2" speed="13.89" length="20.80" shape="189.60,298.40 210.40,298.40"/>
    </edge>
    <edge id=":B3_0" function="internal">
        <lane id=":B3_0_0" index="0" speed="13.89" length="33.60" shape="195.20,416.80 195.20,383.20"/>
        <lane id=":B3_0_1" index="1" speed="13.89" length="33.60" shape="198.40,416.80 198.40,383.20"/>
    </edge>
    <edge id=":B3_2" function="internal">
        <lane id=":B3_2_0" index="0" speed="13.89" length="20.80" shape="210.40,411.20 189.60,411.20"/>
        <lane id=":B3_2_1" index="1" speed="13.89" length="20.80" shape="210.40,408.00 189.60,408.00"/>
        <lane id=":B3_2_2" index="2" speed="13.89" length="20.80" shape="210.40,404.80 189.60,404.80"/>
        <lane id=":B3_2_3" index="3" speed="13.89" length="20.80" shape="210.40,401.60 189.60,401.60"/>
    </edge>
    <edge id=":B3_6" function="internal">
        <lane id=":B3_6_0" index="0" speed="13.89" length="33.60" shape="204.80,383.20 204.80,416.80"/>
        <lane id=":B3_6_1" index="1" speed="13.89" length="33.60" shape="201.60,383.20 201.60,416.80"/>
    </edge>
    <edge id=":B3_8" function="internal">
        <lane id=":B3_8_0" index="0" speed="13.89" length="20.80" shape="189.60,388.80 210.40,388.80"/>
        <lane id=":B3_8_1" index="1" speed="13.89" length="20.80" shape="189.60,392.00 210.40,392.00"/>
        <lane id=":B3_8_2" index="2" speed="13.89" length="20.80" shape="189.60,395.20 210.40,395.20"/>
        <lane id=":B3_8_3" index="3" speed="13.89" length="20.80" shape="189.60,398.40 210.40,398.40"/>
    </edge>
    <edge id=":B4_0" function="internal">
        <lane id=":B4_0_0" index="0" speed="13.89" length="27.20" shape="195.20,513.60 195.20,486.40"/>
        <lane id=":B4_0_1" index="1" speed="13.89" length="27.20" shape="198.40,513.60 198.40,486.40"/>
    </edge>
    <edge id=":B4_2" function="internal">
        <lane id=":B4_2_0" index="0" speed="13.89" length="20.80" shape="210.40,508.00 189.60,508.00"/>
        <lane id=":B4_2_1" index="1" speed="13.89" length="20.80" shape="210.40,504.80 189.60,504.80"/>
        <lane id=":B4_2_2" index="2" speed="13.89" length="20.80" shape="210.40,501.60 189.60,501.60"/>
    </edge>
    <edge id=":B4_5" function="internal">
        <lane id=":B4_5_0" index="0" speed="13.89" length="27.20" shape="204.80,486.40 204.80,513.60"/>
        <lane id=":B4_5_1" index="1" speed="13.89" length="27.20" shape="201.60,486.40 201.60,513.60"/>
    </edge>
    <edge id=":B4_7" function="internal">
        <lane id=":B4_7_0" index="0" speed="13.89" length="20.80" shape="189.60,492.00 210.40,492.00"/>
        <lane id=":B4_7_1" index="1" speed="13.89" length="20.80" shape="189.60,495.20 210.40,495.20"/>
        <lane id=":B4_7_2" index="2" speed="13.89" length="20.80" shape="189.60,498.40 210.40,498.40"/>
    </edge>
    <edge id=":B5_0" function="internal">
        <lane id=":B5_0_0" index="0" speed="13.89" length="20.80" shape="195.20,610.40 195.20,589.60"/>
        <lane id=":B5_0_1" index="1" speed="13.89" length="20.80" shape="198.40,610.40 198.40,589.60"/>
    </edge>
    <edge id=":B5_2" function="internal">
        <lane id=":B5_2_0" index="0" speed="13.89" length="20.80" shape="210.40,604.80 189.60,604.80"/>
        <lane id=":B5_2_1" index="1" speed="13.89" length="20.80" shape="210.40,601.60 189.60,601.60"/>
    </edge>
    <edge id=":B5_4" function="internal">
        <lane id=":B5_4_0" index="0" speed="13.89" length="20.80" shape="204.80,589.60 204.80,610.40"/>
        <lane id=":B5_4_1" index="1" speed="13.89" length="20.80" shape="201.60,589.60 201.60,610.40"/>
    </edge>
    <edge id=":B5_6" function="internal">
        <lane id=":B5_6_0" index="0" speed="13.89" length="20.80" shape="189.60,595.20 210.40,595.20"/>
        <lane id=":B5_6_1" index="1" speed="13.89" length="20.80" shape="189.60,598.40 210.40,598.40"/>
    </edge>
    <edge id=":B6_0" function="internal">
        <lane id=":B6_0_0" index="0" speed="13.89" length="14.40" shape="195.20,707.20 195.20,692.80"/>
        <lane id=":B6_0_1" index="1" speed="13.89" length="14.40" shape="198.40,707.20 198.40,692.80"/>
    </edge>
    <edge id=":B6_2" function="internal">
        <lane id=":B6_2_0" index="0" speed="13.89" length="20.80" shape="210.40,701.60 189.60,701.60"/>
    </edge>
    <edge id=":B6_3" function="internal">
        <lane id=":B6_3_0" index="0" speed="13.89" length="14.40" shape="204.80,692.80 204.80,707.20"/>
        <lane id=":B6_3_1" index="1" speed="13.89" length="14.40" shape="201.60,692.80 201.60,707.20"/>
    </edge>
    <edge id=":B6_5" function="internal">
        <lane id=":B6_5_0" index="0" speed="13.89" length="20.80" shape="189.60,698.40 210.40,698.40"/>
    </edge>
    <edge id=":C0_0" function="internal">
        <lane id=":C0_0_0" index="0" speed="13.89" length="14.40" shape="292.00,107.20 292.00,92.80"/>
        <lane id=":C0_0_1" index="1" speed="13.89" length="14.40" shape="295.20,107.20 295.20,92.80"/>
        <lane id=":C0_0_2" index="2" speed="13.89" length="14.40" shape="298.40,107.20 298.40,92.80"/>
    </edge>
    <edge id=":C0_3" function="internal">
        <lane id=":C0_3_0" index="0" speed="13.89" length="27.20" shape="313.60,101.60 286.40,101.60"/>
    </edge>
    <edge id=":C0_4" function="internal">
        <lane id=":C0_4_0" index="0" speed="13.89" length="14.40" shape="308.00,92.80 308.00,107.20"/>
        <lane id=":C0_4_1" index="1" speed="13.89" length="14.40" shape="304.80,92.80 304.80,107.20"/>
        <lane id=":C0_4_2" index="2" speed="13.89" length="14.40" shape="301.60,92.80 301.60,107.20"/>
    </edge>
    <edge id=":C0_7" function="internal">
        <lane id=":C0_7_0" index="0" speed="13.89" length="27.20" shape="286.40,98.40 313.60,98.40"/>
    </edge>
    <edge id=":C1_0" function="internal">
        <lane id=":C1_0_0" index="0" speed="13.89" length="20.80" shape="292.00,210.40 292.00,189.60"/>
        <lane id=":C1_0_1" index="1" speed="13.89" length="20.80" shape="295.20,210.40 295.20,189.60"/>
        <lane id=":C1_0_2" index="2" speed="13.89" length="20.80" shape="298.40,210.40 298.40,189.60"/>
    </edge>
    <edge id=":C1_3" function="internal">
        <lane id=":C1_3_0" index="0" speed="13.89" length="27.20" shape="313.60,204.80 286.40,204.80"/>
        <lane id=":C1_3_1" index="1" speed="13.89" length="27.20" shape="313.60,201.60 286.40,201.60"/>
    </edge>
    <edge id=":C1_5" function="internal">
        <lane id=":C1_5_0" index="0" speed="13.89" length="20.80" shape="308.00,189.60 308.00,210.40"/>
        <lane id=":C1_5_1" index="1" speed="13.89" length="20.80" shape="304.80,189.60 304.80,210.40"/>
        <lane id=":C1_5_2" index="2" speed="13.89" length="20.80" shape="301.60,189.60 301.60,210.40"/>
    </edge>
    <edge id=":C1_8" function="internal">
        <lane id=":C1_8_0" index="0" speed="13.89" length="27.20" shape="286.40,195.20 313.60,195.20"/>
        <lane id=":C1_8_1" index="1" speed="13.89" length="27.20" shape="286.40,198.40 313.60,198.40"/>
    </edge>
    <edge id=":C2_0" function="internal">
        <lane id=":C2_0_0" index="0" speed="13.89" length="27.20" shape="292.00,313.60 292.00,286.40"/>
        <lane id=":C2_0_1" index="1" speed="13.89" length="27.20" shape="295.20,313.60 295.20,286.40"/>
        <lane id=":C2_0_2" index="2" speed="13.89" length="27.20" shape="298.40,313.60 298.40,286.40"/>
    </edge>
    <edge id=":C2_3" function="internal">
        <lane id=":C2_3_0" index="0" speed="13.89" length="27.20" shape="313.60,308.00 286.40,308.00"/>
        <lane id=":C2_3_1" index="1" speed="13.89" length="27.20" shape="313.60,304.80 286.40,304.80"/>
        <lane id=":C2_3_2" index="2" speed="13.89" length="27.20" shape="313.60,301.60 286.40,301.60"/>
    </edge>
    <edge id=":C2_6" function="internal">
        <lane id=":C2_6_0" index="0" speed="13.89" length="27.20" shape="308.00,286.40 308.00,313.60"/>
        <lane id=":C2_6_1" index="1" speed="13.89" length="27.20" shape="304.80,286.40 304.80,313.60"/>
        <lane id=":C2_6_2" index="2" speed="13.89" length="27.20" shape="301.60,286.40 301.60,313.60"/>
    </edge>
    <edge id=":C2_9" function="internal">
        <lane id=":C2_9_0" index="0" speed="13.89" length="27.20" shape="286.40,292.00 313.60,292.00"/>
        <lane id=":C2_9_1" index="1" speed="13.89" length="27.20" shape="286.40,295.20 313.60,295.20"/>
        <lane id=":C2_9_2" index="2" speed="13.89" length="27.20" shape="286.40,298.40 313.60,298.40"/>
    </edge>
    <edge id=":C3_0" function="internal">
        <lane id=":C3_0_0" index="0" speed="13.89" length="33.60" shape="292.00,416.80 292.00,383.20"/>
        <lane id=":C3_0_1" index="1" speed="13.89" length="33.60" shape="295.20,416.80 295.20,383.20"/>
        <lane id=":C3_0_2" index="2" speed="13.89" length="33.60" shape="298.40,416.80 298.40,383.20"/>
    </edge>
    <edge id=":C3_3" function="internal">
        <lane id=":C3_3_0" index="0" speed="13.89" length="27.20" shape="313.60,411.20 286.40,411.20"/>
        <lane id=":C3_3_1" index="1" speed="13.89" length="27.20" shape="313.60,408.00 286.40,408.00"/>
        <lane id=":C3_3_2" index="2" speed="13.89" length="27.20" shape="313.60,404.80 286.40,404.80"/>
        <lane id=":C3_3_3" index="3" speed="13.89" length="27.20" shape="313.60,401.60 286.40,401.60"/>
    </edge>
    <edge id=":C3_7" function="internal">
        <lane id=":C3_7_0" index="0" speed="13.89" length="33.60" shape="308.00,383.20 308.00,416.80"/>
        <lane id=":C3_7_1" index="1" speed="13.89" length="33.60" shape="304.80,383.20 304.80,416.80"/>
        <lane id=":C3_7_2" index="2" speed="13.89" length="33.60" shape="301.60,383.20 301.60,416.80"/>
    </edge>
    <edge id=":C3_10" function="internal">
        <lane id=":C3_10_0" index="0" speed="13.89" length="27.20" shape="286.40,388.80 313.60,388.80"/>
        <lane id=":C3_10_1" index="1" speed="13.89" length="27.20" shape="286.40,392.00 313.60,392.00"/>
        <lane id=":C3_10_2" index="2" speed="13.89" length="27.20" shape="286.40,395.20 313.60,395.20"/>
        <lane id=":C3_10_3" index="3" speed="13.89" length="27.20" shape="286.40,398.40 313.60,398.40"/>
    </edge>
    <edge id=":C4_0" function="internal">
        <lane id=":C4_0_0" index="0" speed="13.89" length="27.20" shape="292.00,513.60 292.00,486.40"/>
        <lane id=":C4_0_1" index="1" speed="13.89" length="27.20" shape="295.20,513.60 295.20,486.40"/>
        <lane id=":C4_0_2" index="2" speed="13.89" length="27.20" shape="298.40,513.60 298.40,486.40"/>
    </edge>
    <edge id=":C4_3" function="internal">
        <lane id=":C4_3_0" index="0" speed="13.89" length="27.20" shape="313.60,508.00 286.40,508.00"/>
        <lane id=":C4_3_1" index="1" speed="13.89" length="27.20" shape="313.60,504.80 286.40,504.80"/>
        <lane id=":C4_3_2" index="2" speed="13.89" length="27.20" shape="313.60,501.60 286.40,501.60"/>
    </edge>
    <edge id=":C4_6" function="internal">
        <lane id=":C4_6_0" index="0" speed="13.89" length="27.20" shape="308.00,486.40 308.00,513.60"/>
        <lane id=":C4_6_1" index="1" speed="13.89" length="27.20" shape="304.80,486.40 304.80,513.60"/>
        <lane id=":C4_6_2" index="2" speed="13.89" length="27.20" shape="301.60,486.40 301.60,513.60"/>
    </edge>
    <edge id=":C4_9" function="internal">
        <lane id=":C4_9_0" index="0" speed="13.89" length="27.20" shape="286.40,492.00 313.60,492.00"/>
        <lane id=":C4_9_1" index="1" speed="13.89" length="27.20" shape="286.40,495.20 313.60,495.20"/>
        <lane id=":C4_9_2" index="2" speed="13.89" length="27.20" shape="286.40,498.40 313.60,498.40"/>
    </edge>
    <edge id=":C5_0" function="internal">
        <lane id=":C5_0_0" index="0" speed="13.89" length="20.80" shape="292.00,610.40 292.00,589.60"/>
        <lane id=":C5_0_1" index="1" speed="13.89" length="20.80" shape="295.20,610.40 295.20,589.60"/>
        <lane id=":C5_0_2" index="2" speed="13.89" length="20.80" shape="298.40,610.40 298.40,589.60"/>
    </edge>
    <edge id=":C5_3" function="internal">
        <lane id=":C5_3_0" index="0" speed="13.89" length="27.20" shape="313.60,604.80 286.40,604.80"/>
        <lane id=":C5_3_1" index="1" speed="13.89" length="27.20" shape="313.60,601.60 286.40,601.60"/>
    </edge>
    <edge id=":C5_5" function="internal">
        <lane id=":C5_5_0" index="0" speed="13.89" length="20.80" shape="308.00,589.60 308.00,610.40"/>
        <lane id=":C5_5_1" index="1" speed="13.89" length="20.80" shape="304.80,589.60 304.80,610.40"/>
        <lane id=":C5_5_2" index="2" speed="13.89" length="20.80" shape="301.60,589.60 301.60,610.40"/>
    </edge>
    <edge id=":C5_8" function="internal">
        <lane id=":C5_8_0" index="0" speed="13.89" length="27.20" shape="286.40,595.20 313.60,595.20"/>
        <lane id=":C5_8_1" index="1" speed="13.89" length="27.20" shape="286.40,598.40 313.60,598.40"/>
    </edge>
    <edge id=":C6_0" function="internal">
        <lane id=":C6_0_0" index="0" speed="13.89" length="14.40" shape="292.00,707.20 292.00,692.80"/>
        <lane id=":C6_0_1" index="1" speed="13.89" length="14.40" shape="295.20,707.20 295.20,692.80"/>
        <lane id=":C6_0_2" index="2" speed="13.89" length="14.40" shape="298.40,707.20 298.40,692.80"/>
    </edge>
    <edge id=":C6_3" function="internal">
        <lane id=":C6_3_0" index="0" speed="13.89" length="27.20" shape="313.60,701.60 286.40,701.60"/>
    </edge>
    <edge id=":C6_4" function="internal">
        <lane id=":C6_4_0" index="0" speed="13.89" length="14.40" shape="308.00,692.80 308.00,707.20"/>
        <lane id=":C6_4_1" index="1" speed="13.89" length="14.40" shape="304.80,692.80 304.80,707.20"/>
        <lane id=":C6_4_2" index="2" speed="13.89" length="14.40" shape="301.60,692.80 301.60,707.20"/>
    </edge>
    <edge id=":C6_7" function="internal">
        <lane id=":C6_7_0" index="0" speed="13.89" length="27.20" shape="286.40,698.40 313.60,698.40"/>
    </edge>
    <edge id=":D0_0" function="internal">
        <lane id=":D0_0_0" index="0" speed="13.89" length="14.40" shape="388.80,107.20 388.80,92.80"/>
        <lane id=":D0_0_1" index="1" speed="13.89" length="14.40" shape="392.00,107.20 392.00,92.80"/>
        <lane id=":D0_0_2" index="2" speed="13.89" length="14.40" shape="395.20,107.20 395.20,92.80"/>
        <lane id=":D0_0_3" index="3" speed="13.89" length="14.40" shape="398.40,107.20 398.40,92.80"/>
    </edge>
    <edge id=":D0_4" function="internal">
        <lane id=":D0_4_0" index="0" speed="13.89" length="33.60" shape="416.80,101.60 383.20,101.60"/>
    </edge>
    <edge id=":D0_5" function="internal">
        <lane id=":D0_5_0" index="0" speed="13.89" length="14.40" shape="411.20,92.80 411.20,107.20"/>
        <lane id=":D0_5_1" index="1" speed="13.89" length="14.40" shape="408.00,92.80 408.00,107.20"/>
        <lane id=":D0_5_2" index="2" speed="13.89" length="14.40" shape="404.80,92.80 404.80,107.20"/>
        <lane id=":D0_5_3" index="3" speed="13.89" length="14.40" shape="401.60,92.80 401.60,107.20"/>
    </edge>
    <edge id=":D0_9" function="internal">
        <lane id=":D0_9_0" index="0" speed="13.89" length="33.60" shape="383.20,98.40 416.80,98.40"/>
    </edge>
    <edge id=":D1_0" function="internal">
        <lane id=":D1_0_0" index="0" speed="13.89" length="20.80" shape="388.80,210.40 388.80,189.60"/>
        <lane id=":D1_0_1" index="1" speed="13.89" length="20.80" shape="392.00,210.40 392.00,189.60"/>
        <lane id=":D1_0_2" index="2" speed="13.89" length="20.80" shape="395.20,210.40 395.20,189.60"/>
        <lane id=":D1_0_3" index="3" speed="13.89" length="20.80" shape="398.40,210.40 398.40,189.60"/>
    </edge>
    <edge id=":D1_4" function="internal">
        <lane id=":D1_4_0" index="0" speed="13.89" length="33.60" shape="416.80,204.80 383.20,204.80"/>
        <lane id=":D1_4_1" index="1" speed="13.89" length="33.60" shape="416.80,201.60 383.20,201.60"/>
    </edge>
    <edge id=":D1_6" function="internal">
        <lane id=":D1_6_0" index="0" speed="13.89" length="20.80" shape="411.20,189.60 411.20,210.40"/>
        <lane id=":D1_6_1" index="1" speed="13.89" length="20.80" shape="408.00,189.60 408.00,210.40"/>
        <lane id=":D1_6_2" index="2" speed="13.89" length="20.80" shape="404.80,189.60 404.80,210.40"/>
        <lane id=":D1_6_3" index="3" speed="13.89" length="20.80" shape="401.60,189.60 401.60,210.40"/>
    </edge>
    <edge id=":D1_10" function="internal">
        <lane id=":D1_10_0" index="0" speed="13.89" length="33.60" shape="383.20,195.20 416.80,195.20"/>
        <lane id=":D1_10_1" index="1" speed="13.89" length="33.60" shape="383.20,198.40 416.80,198.40"/>
    </edge>
    <edge id=":D2_0" function="internal">
        <lane id=":D2_0_0" index="0" speed="13.89" length="27.20" shape="388.80,313.60 388.80,286.40"/>
        <lane id=":D2_0_1" index="1" speed="13.89" length="27.20" shape="392.00,313.60 392.00,286.40"/>
        <lane id=":D2_0_2" index="2" speed="13.89" length="27.20" shape="395.20,313.60 395.20,286.40"/>
        <lane id=":D2_0_3" index="3" speed="13.89" length="27.20" shape="398.40,313.60 398.40,286.40"/>
    </edge>
    <edge id=":D2_4" function="internal">
        <lane id=":D2_4_0" index="0" speed="13.89" length="33.60" shape="416.80,308.00 383.20,308.00"/>
        <lane id=":D2_4_1" index="1" speed="13.89" length="33.60" shape="416.80,304.80 383.20,304.80"/>
        <lane id=":D2_4_2" index="2" speed="13.89" length="33.60" shape="416.80,301.60 383.20,301.60"/>
    </edge>
    <edge id=":D2_7" function="internal">
        <lane id=":D2_7_0" index="0" speed="13.89" length="27.20" shape="411.20,286.40 411.20,313.60"/>
        <lane id=":D2_7_1" index="1" speed="13.89" length="27.20" shape="408.00,286.40 408.00,313.60"/>
        <lane id=":D2_7_2" index="2" speed="13.89" length="27.20" shape="404.80,286.40 404.80,313.60"/>
        <lane id=":D2_7_3" index="3" speed="13.89" length="27.20" shape="401.60,286.40 401.60,313.60"/>
    </edge>
    <edge id=":D2_11" function="internal">
        <lane id=":D2_11_0" index="0" speed="13.89" length="33.60" shape="383.20,292.00 416.80,292.00"/>
        <lane id=":D2_11_1" index="1" speed="13.89" length="33.60" shape="383.20,295.20 416.80,295.20"/>
        <lane id=":D2_11_2" index="2" speed="13.89" length="33.60" shape="383.20,298.40 416.80,298.40"/>
    </edge>
    <edge id=":D3_0" function="internal">
        <lane id=":D3_0_0" index="0" speed="13.89" length="33.60" shape="388.80,416.80 388.80,383.20"/>
        <lane id=":D3_0_1" index="1" speed="13.89" length="33.60" shape="392.00,416.80 392.00,383.20"/>
        <lane id=":D3_0_2" index="2" speed="13.89" length="33.60" shape="395.20,416.80 395.20,383.20"/>
        <lane id=":D3_0_3" index="3" speed="13.89" length="33.60" shape="398.40,416.80 398.40,383.20"/>
    </edge>
    <edge id=":D3_4" function="internal">
        <lane id=":D3_4_0" index="0" speed="6.51" length="9.03" shape="416.80,411.20 414.35,411.55 412.60,412.60 411.55,414.35 411.20,416.80"/>
    </edge>
    <edge id=":D3_5" function="internal">
        <lane id=":D3_5_0" index="0" speed="13.89" length="33.60" shape="416.80,411.20 383.20,411.20"/>
        <lane id=":D3_5_1" index="1" speed="13.89" length="33.60" shape="416.80,408.00 383.20,408.00"/>
        <lane id=":D3_5_2" index="2" speed="13.89" length="33.60" shape="416.80,404.80 383.20,404.80"/>