<?xml version="1.0" encoding="UTF-8"?>

<!-- generated on 2022-02-21 21:37:36 by Eclipse SUMO netedit Version 1.12.0
<configuration xmlns:xsi="http://www.w3.org/2001/XMLSchema-instance" xsi:noNamespaceSchemaLocation="http://sumo.dlr.de/xsd/netconvertConfiguration.xsd">

    <input>
        <sumo-net-file value="grid-3x3.net.xml"/>
    </input>

    <output>
        <output-file value="grid-3x3.net.xml"/>
    </output>

    <processing>
        <geometry.min-radius.fix.railways value="false"/>
        <geometry.max-grade.fix value="false"/>
        <offset.disable-normalization value="true"/>
        <lefthand value="false"/>
    </processing>

    <junctions>
        <no-turnarounds value="true"/>
        <junctions.corner-detail value="5"/>
        <junctions.limit-turn-speed value="5.5"/>
        <rectangular-lane-cut value="false"/>
    </junctions>

    <pedestrian>
        <walkingareas value="false"/>
    </pedestrian>

    <report>
        <aggregate-warnings value="5"/>
    </report>

</configuration>
-->

<net version="1.9" junctionCornerDetail="5" limitTurnSpeed="5.50" xmlns:xsi="http://www.w3.org/2001/XMLSchema-instance" xsi:noNamespaceSchemaLocation="http://sumo.dlr.de/xsd/net_file.xsd">

    <location netOffset="0.00,0.00" convBoundary="0.00,0.00,400.00,400.00" origBoundary="0.00,0.00,400.00,400.00" projParameter="!"/>

    <edge id=":A0_0" function="internal">
        <lane id=":A0_0_0" index="0" speed="13.89" length="14.40" shape="98.40,107.20 98.40,92.80"/>
    </edge>
    <edge id=":A0_1" function="internal">
        <lane id=":A0_1_0" index="0" speed="13.89" length="14.40" shape="107.20,101.60 92.80,101.60"/>
    </edge>
    <edge id=":A0_2" function="internal">
        <lane id=":A0_2_0" index="0" speed="13.89" length="14.40" shape="101.60,92.80 101.60,107.20"/>
    </edge>
    <edge id=":A0_3" function="internal">
        <lane id=":A0_3_0" index="0" speed="13.89" length="14.40" shape="92.80,98.40 107.20,98.40"/>
    </edge>
    <edge id=":A1_0" function="internal">
        <lane id=":A1_0_0" index="0" speed="13.89" length="20.80" shape="98.40,210.40 98.40,189.60"/>
    </edge>
    <edge id=":A1_1" function="internal">
        <lane id=":A1_1_0" index="0" speed="13.89" length="14.40" shape="107.20,204.80 92.80,204.80"/>
        <lane id=":A1_1_1" index="1" speed="13.89" length="14.40" shape="107.20,201.60 92.80,201.60"/>
    </edge>
    <edge id=":A1_3" function="internal">
        <lane id=":A1_3_0" index="0" speed="13.89" length="20.80" shape="101.60,189.60 101.60,210.40"/>
    </edge>
    <edge id=":A1_4" function="internal">
        <lane id=":A1_4_0" index="0" speed="13.89" length="14.40" shape="92.80,195.20 107.20,195.20"/>
        <lane id=":A1_4_1" index="1" speed="13.89" length="14.40" shape="92.80,198.40 107.20,198.40"/>
    </edge>
    <edge id=":A2_0" function="internal">
        <lane id=":A2_0_0" index="0" speed="13.89" length="14.40" shape="98.40,307.20 98.40,292.80"/>
    </edge>
    <edge id=":A2_1" function="internal">
        <lane id=":A2_1_0" index="0" speed="13.89" length="14.40" shape="107.20,301.60 92.80,301.60"/>
    </edge>
    <edge id=":A2_2" function="internal">
        <lane id=":A2_2_0" index="0" speed="13.89" length="14.40" shape="101.60,292.80 101.60,307.20"/>
    </edge>
    <edge id=":A2_3" function="internal">
        <lane id=":A2_3_0" index="0" speed="13.89" length="14.40" shape="92.80,298.40 107.20,298.40"/>
    </edge>
    <edge id=":B0_0" function="internal">
        <lane id=":B0_0_0" index="0" speed="13.89" length="14.40" shape="195.20,107.20 195.20,92.80"/>
        <lane id=":B0_0_1" index="1" speed="13.89" length="14.40" shape="198.40,107.20 198.40,92.80"/>
    </edge>
    <edge id=":B0_2" function="internal">
        <lane id=":B0_2_0" index="0" speed="13.89" length="20.80" shape="210.40,101.60 189.60,101.60"/>
    </edge>
    <edge id=":B0_3" function="internal">
        <lane id=":B0_3_0" index="0" speed="13.89" length="14.40" shape="204.80,92.80 204.80,107.20"/>
        <lane id=":B0_3_1" index="1" speed="13.89" length="14.40" shape="201.60,92.80 201.60,107.20"/>
    </edge>
    <edge id=":B0_5" function="internal">
        <lane id=":B0_5_0" index="0" speed="13.89" length="20.80" shape="189.60,98.40 210.40,98.40"/>
    </edge>
    <edge id=":B1_0" function="internal">
        <lane id=":B1_0_0" index="0" speed="13.89" length="20.80" shape="195.20,210.40 195.20,189.60"/>
        <lane id=":B1_0_1" index="1" speed="13.89" length="20.80" shape="198.40,210.40 198.40,189.60"/>
    </edge>
    <edge id=":B1_2" function="internal">
        <lane id=":B1_2_0" index="0" speed="13.89" length="20.80" shape="210.40,204.80 189.60,204.80"/>
        <lane id=":B1_2_1" index="1" speed="13.89" length="20.80" shape="210.40,201.60 189.60,201.60"/>
    </edge>
    <edge id=":B1_4" function="internal">
        <lane id=":B1_4_0" index="0" speed="13.89" length="20.80" shape="204.80,189.60 204.80,210.40"/>
        <lane id=":B1_4_1" index="1" speed="13.89" length="20.80" shape="201.60,189.60 201.60,210.40"/>
    </edge>
    <edge id=":B1_6" function="internal">
        <lane id=":B1_6_0" index="0" speed="13.89" length="20.80" shape="189.60,195.20 210.40,195.20"/>
        <lane id=":B1_6_1" index="1" speed="13.89" length="20.80" shape="189.60,198.40 210.40,198.40"/>
    </edge>
    <edge id=":B2_0" function="internal">
        <lane id=":B2_0_0" index="0" speed="13.89" length="14.40" shape="195.20,307.20 195.20,292.80"/>
        <lane id=":B2_0_1" index="1" speed="13.89" length="14.40" shape="198.40,307.20 198.40,292.80"/>
    </edge>
    <edge id=":B2_2" function="internal">
        <lane id=":B2_2_0" index="0" speed="13.89" length="20.80" shape="210.40,301.60 189.60,301.60"/>
    </edge>
    <edge id=":B2_3" function="internal">
        <lane id=":B2_3_0" index="0" speed="13.89" length="14.40" shape="204.80,292.80 204.80,307.20"/>
        <lane id=":B2_3_1" index="1" speed="13.89" length="14.40" shape="201.60,292.80 201.60,307.20"/>
    </edge>
    <edge id=":B2_5" function="internal">
        <lane id=":B2_5_0" index="0" speed="13.89" length="20.80" shape="189.60,298.40 210.40,298.40"/>
    </edge>
    <edge id=":C0_0" function="internal">
        <lane id=":C0_0_0" index="0" speed="13.89" length="14.40" shape="298.40,107.20 298.40,92.80"/>
    </edge>
    <edge id=":C0_1" function="internal">
        <lane id=":C0_1_0" index="0" speed="13.89" length="14.40" shape="307.20,101.60 292.80,101.60"/>
    </edge>
    <edge id=":C0_2" function="internal">
        <lane id=":C0_2_0" index="0" speed="13.89" length="14.40" shape="301.60,92.80 301.60,107.20"/>
    </edge>
    <edge id=":C0_3" function="internal">
        <lane id=":C0_3_0" index="0" speed="13.89" length="14.40" shape="292.80,98.40 307.20,98.40"/>
    </edge>
    <edge id=":C1_0" function="internal">
        <lane id=":C1_0_0" index="0" speed="13.89" length="20.80" shape="298.40,210.40 298.40,189.60"/>
    </edge>
    <edge id=":C1_1" function="internal">
        <lane id=":C1_1_0" index="0" speed="13.89" length="14.40" shape="307.20,204.80 292.80,204.80"/>
        <lane id=":C1_1_1" index="1" speed="13.89" length="14.40" shape="307.20,201.60 292.80,201.60"/>
    </edge>
    <edge id=":C1_3" function="internal">
        <lane id=":C1_3_0" index="0" speed="13.89" length="20.80" shape="301.60,189.60 301.60,210.40"/>
    </edge>
    <edge id=":C1_4" function="internal">
        <lane id=":C1_4_0" index="0" speed="13.89" length="14.40" shape="292.80,195.20 307.20,195.20"/>
        <lane id=":C1_4_1" index="1" speed="13.89" length="14.40" shape="292.80,198.40 307.20,198.40"/>
    </edge>
    <edge id=":C2_0" function="internal">
        <lane id=":C2_0_0" index="0" speed="13.89" length="14.40" shape="298.40,307.20 298.40,292.80"/>
    </edge>
    <edge id=":C2_1" function="internal">
        <lane id=":C2_1_0" index="0" speed="13.89" length="14.40" shape="307.20,301.60 292.80,301.60"/>
    </edge>
    <edge id=":C2_2" function="internal">
        <lane id=":C2_2_0" index="0" speed="13.89" length="14.40" shape="301.60,292.80 301.60,307.20"/>
    </edge>
    <edge id=":C2_3" function="internal">
        <lane id=":C2_3_0" index="0" speed="13.89" length="14.40" shape="292.80,298.40 307.20,298.40"/>
    </edge>

    <edge id="A0A1" from="A0" to="A1" priority="-1">
        <lane id="A0A1_0" index="0" speed="13.89" length="82.40" shape="101.60,107.20 101.60,189.60"/>
    </edge>
    <edge id="A0B0" from="A0" to="B0" priority="-1">
        <lane id="A0B0_0" index="0" speed="13.89" length="82.40" shape="107.20,98.40 189.60,98.40"/>
    </edge>
    <edge id="A0bottom0" from="A0" to="bottom0" priority="-1">
        <lane id="A0bottom0_0" index="0" speed="13.89" length="92.80" shape="98.40,92.80 98.40,0.00"/>
    </edge>
    <edge id="A0left0" from="A0" to="left0" priority="-1">
        <lane id="A0left0_0" index="0" speed="13.89" length="92.80" shape="92.80,101.60 0.00,101.60"/>
    </edge>
    <edge id="A1A0" from="A1" to="A0" priority="-1">
        <lane id="A1A0_0" index="0" speed="13.89" length="82.40" shape="98.40,189.60 98.40,107.20"/>
    </edge>
    <edge id="A1A2" from="A1" to="A2" priority="-1">
        <lane id="A1A2_0" index="0" speed="13.89" length="82.40" shape="101.60,210.40 101.60,292.80"/>
    </edge>
    <edge id="A1B1" from="A1" to="B1" priority="-1">
        <lane id="A1B1_0" index="0" speed="13.89" length="82.40" shape="107.20,195.20 189.60,195.20"/>
        <lane id="A1B1_1" index="1" speed="13.89" length="82.40" shape="107.20,198.40 189.60,198.40"/>
    </edge>
    <edge id="A1left1" from="A1" to="left1" priority="-1">
        <lane id="A1left1_0" index="0" speed="13.89" length="92.80" shape="92.80,204.80 0.00,204.80"/>
        <lane id="A1left1_1" index="1" speed="13.89" length="92.80" shape="92.80,201.60 0.00,201.60"/>
    </edge>
    <edge id="A2A1" from="A2" to="A1" priority="-1">
        <lane id="A2A1_0" index="0" speed="13.89" length="82.40" shape="98.40,292.80 98.40,210.40"/>
    </edge>
    <edge id="A2B2" from="A2" to="B2" priority="-1">
        <lane id="A2B2_0" index="0" speed="13.89" length="82.40" shape="107.20,298.40 189.60,298.40"/>
    </edge>
    <edge id="A2left2" from="A2" to="left2" priority="-1">
        <lane id="A2left2_0" index="0" speed="13.89" length="92.80" shape="92.80,301.60 0.00,301.60"/>
    </edge>
    <edge id="A2top0" from="A2" to="top0" priority="-1">
        <lane id="A2top0_0" index="0" speed="13.89" length="92.80" shape="101.60,307.20 101.60,400.00"/>
    </edge>
    <edge id="B0A0" from="B0" to="A0" priority="-1">
        <lane id="B0A0_0" index="0" speed="13.89" length="82.40" shape="189.60,101.60 107.20,101.60"/>
    </edge>
    <edge id="B0B1" from="B0" to="B1" priority="-1">
        <lane id="B0B1_0" index="0" speed="13.89" length="82.40" shape="204.80,107.20 204.80,189.60"/>
        <lane id="B0B1_1" index="1" speed="13.89" length="82.40" shape="201.60,107.20 201.60,189.60"/>
    </edge>
    <edge id="B0C0" from="B0" to="C0" priority="-1">
        <lane id="B0C0_0" index="0" speed="13.89" length="82.40" shape="210.40,98.40 292.80,98.40"/>
    </edge>
    <edge id="B0bottom1" from="B0" to="bottom1" priority="-1">
        <lane id="B0bottom1_0" index="0" speed="13.89" length="92.80" shape="195.20,92.80 195.20,0.00"/>
        <lane id="B0bottom1_1" index="1" speed="13.89" length="92.80" shape="198.40,92.80 198.40,0.00"/>
    </edge>
    <edge id="B1A1" from="B1" to="A1" priority="-1">
        <lane id="B1A1_0" index="0" speed="13.89" length="82.40" shape="189.60,204.80 107.20,204.80"/>
        <lane id="B1A1_1" index="1" speed="13.89" length="82.40" shape="189.60,201.60 107.20,201.60"/>
    </edge>
    <edge id="B1B0" from="B1" to="B0" priority="-1">
        <lane id="B1B0_0" index="0" speed="13.89" length="82.40" shape="195.20,189.60 195.20,107.20"/>
        <lane id="B1B0_1" index="1" speed="13.89" length="82.40" shape="198.40,189.60 198.40,107.20"/>
    </edge>
    <edge id="B1B2" from="B1" to="B2" priority="-1">
        <lane id="B1B2_0" index="0" speed="13.89" length="82.40" shape="204.80,210.40 204.80,292.80"/>
        <lane id="B1B2_1" index="1" speed="13.89" length="82.40" shape="201.60,210.40 201.60,292.80"/>
    </edge>
    <edge id="B1C1" from="B1" to="C1" priority="-1">
        <lane id="B1C1_0" index="0" speed="13.89" length="82.40" shape="210.40,195.20 292.80,195.20"/>
        <lane id="B1C1_1" index="1" speed="13.89" length="82.40" shape="210.40,198.40 292.80,198.40"/>
    </edge>
    <edge id="B2A2" from="B2" to="A2" priority="-1">
        <lane id="B2A2_0" index="0" speed="13.89" length="82.40" shape="189.60,301.60 107.20,301.60"/>
    </edge>
    <edge id="B2B1" from="B2" to="B1" priority="-1">
        <lane id="B2B1_0" index="0" speed="13.89" length="82.40" shape="195.20,292.80 195.20,210.40"/>
        <lane id="B2B1_1" index="1" speed="13.89" length="82.40" shape="198.40,292.80 198.40,210.40"/>
    </edge>
    <edge id="B2C2" from="B2" to="C2" priority="-1">
        <lane id="B2C2_0" index="0" speed="13.89" length="82.40" shape="210.40,298.40 292.80,298.40"/>
    </edge>
    <edge id="B2top1" from="B2" to="top1" priority="-1">
        <lane id="B2top1_0" index="0" speed="13.89" length="92.80" shape="204.80,307.20 204.80,400.00"/>
        <lane id="B2top1_1" index="1" speed="13.89" length="92.80" shape="201.60,307.20 201.60,400.00"/>
    </edge>
    <edge id="C0B0" from="C0" to="B0" priority="-1">
        <lane id="C0B0_0" index="0" speed="13.89" length="82.40" shape="292.80,101.60 210.40,101.60"/>
    </edge>
    <edge id="C0C1" from="C0" to="C1" priority="-1">
        <lane id="C0C1_0" index="0" speed="13.89" length="82.40" shape="301.60,107.20 301.60,189.60"/>
    </edge>
    <edge id="C0bottom2" from="C0" to="bottom2" priority="-1">
        <lane id="C0bottom2_0" index="0" speed="13.89" length="92.80" shape="298.40,92.80 298.40,0.00"/>
    </edge>
    <edge id="C0right0" from="C0" to="right0" priority="-1">
        <lane id="C0right0_0" index="0" speed="13.89" length="92.80" shape="307.20,98.40 400.00,98.40"/>
    </edge>
    <edge id="C1B1" from="C1" to="B1" priority="-1">
        <lane id="C1B1_0" index="0" speed="13.89" length="82.40" shape="292.80,204.80 210.40,204.80"/>
        <lane id="C1B1_1" index="1" speed="13.89" length="82.40" shape="292.80,201.60 210.40,201.60"/>
    </edge>
    <edge id="C1C0" from="C1" to="C0" priority="-1">
        <lane id="C1C0_0" index="0" speed="13.89" length="82.40" shape="298.40,189.60 298.40,107.20"/>
    </edge>
    <edge id="C1C2" from="C1" to="C2" priority="-1">
        <lane id="C1C2_0" index="0" speed="13.89" length="82.40" shape="301.60,210.40 301.60,292.80"/>
    </edge>
    <edge id="C1right1" from="C1" to="right1" priority="-1">
        <lane id="C1right1_0" index="0" speed="13.89" length="92.80" shape="307.20,195.20 400.00,195.20"/>
        <lane id="C1right1_1" index="1" speed="13.89" length="92.80" shape="307.20,198.40 400.00,198.40"/>
    </edge>
    <edge id="C2B2" from="C2" to="B2" priority="-1">
        <lane id="C2B2_0" index="0" speed="13.89" length="82.40" shape="292.80,301.60 210.40,301.60"/>
    </edge>
    <edge id="C2C1" from="C2" to="C1" priority="-1">
        <lane id="C2C1_0" index="0" speed="13.89" length="82.40" shape="298.40,292.80 298.40,210.40"/>
    </edge>
    <edge id="C2right2" from="C2" to="right2" priority="-1">
        <lane id="C2right2_0" index="0" speed="13.89" length="92.80" shape="307.20,298.40 400.00,298.40"/>
    </edge>
    <edge id="C2top2" from="C2" to="top2" priority="-1">
        <lane id="C2top2_0" index="0" speed="13.89" length="92.80" shape="301.60,307.20 301.60,400.00"/>
    </edge>
    <edge id="bottom0A0" from="bottom0" to="A0" priority="-1">
        <lane id="bottom0A0_0" index="0" speed="13.89" length="92.80" shape="101.60,0.00 101.60,92.80"/>
    </edge>
    <edge id="bottom1B0" from="bottom1" to="B0" priority="-1">
        <lane id="bottom1B0_0" index="0" speed="13.89" length="92.80" shape="204.80,0.00 204.80,92.80"/>
        <lane id="bottom1B0_1" index="1" speed="13.89" length="92.80" shape="201.60,0.00 201.60,92.80"/>
    </edge>
    <edge id="bottom2C0" from="bottom2" to="C0" priority="-1">
        <lane id="bottom2C0_0" index="0" speed="13.89" length="92.80" shape="301.60,0.00 301.60,92.80"/>
    </edge>
    <edge id="left0A0" from="left0" to="A0" priority="-1">
        <lane id="left0A0_0" index="0" speed="13.89" length="92.80" shape="0.00,98.40 92.80,98.40"/>
    </edge>
    <edge id="left1A1" from="left1" to="A1" priority="-1">
        <lane id="left1A1_0" index="0" speed="13.89" length="92.80" shape="0.00,195.20 92.80,195.20"/>
        <lane id="left1A1_1" index="1" speed="13.89" length="92.80" shape="0.00,198.40 92.80,198.40"/>
    </edge>
    <edge id="left2A2" from="left2" to="A2" priority="-1">
        <lane id="left2A2_0" index="0" speed="13.89" length="92.80" shape="0.00,298.40 92.80,298.40"/>
    </edge>
    <edge id="right0C0" from="right0" to="C0" priority="-1">
        <lane id="right0C0_0" index="0" speed="13.89" length="92.80" shape="400.00,101.60 307.20,101.60"/>
    </edge>
    <edge id="right1C1" from="right1" to="C1" priority="-1">
        <lane id="right1C1_0" index="0" speed="13.89" length="92.80" shape="400.00,204.80 307.20,204.80"/>
        <lane id="right1C1_1" index="1" speed="13.89" length="92.80" shape="400.00,201.60 307.20,201.60"/>
    </edge>
    <edge id="right2C2" from="right2" to="C2" priority="-1">
        <lane id="right2C2_0" index="0" speed="13.89" length="92.80" shape="400.00,301.60 307.20,301.60"/>
    </edge>
    <edge id="top0A2" from="top0" to="A2" priority="-1">
        <lane id="top0A2_0" index="0" speed="13.89" length="92.80" shape="98.40,400.00 98.40,307.20"/>
    </edge>
    <edge id="top1B2" from="top1" to="B2" priority="-1">
        <lane id="top1B2_0" index="0" speed="13.89" length="92.80" shape="195.20,400.00 195.20,307.20"/>
        <lane id="top1B2_1" index="1" speed="13.89" length="92.80" shape="198.40,400.00 198.40,307.20"/>
    </edge>
    <edge id="top2C2" from="top2" to="C2" priority="-1">
        <lane id="top2C2_0" index="0" speed="13.89" length="92.80" shape="298.40,400.00 298.40,307.20"/>
    </edge>

    <tlLogic id="A0" type="static" programID="0" offset="0">
        <phase duration="42" state="GrGr"/>
        <phase duration="3"  state="yryr"/>
        <phase duration="42" state="rGrG"/>
        <phase duration="3"  state="ryry"/>
    </tlLogic>
    <tlLogic id="A1" type="static" programID="0" offset="0">
        <phase duration="42" state="rGGrGG"/>
        <phase duration="3"  state="ryyryy"/>
        <phase duration="42" state="GrrGrr"/>
        <phase duration="3"  state="yrryrr"/>
    </tlLogic>
    <tlLogic id="A2" type="static" programID="0" offset="0">
        <phase duration="42" state="GrGr"/>
        <phase duration="3"  state="yryr"/>
        <phase duration="42" state="rGrG"/>
        <phase duration="3"  state="ryry"/>
    </tlLogic>
    <tlLogic id="B0" type="static" programID="0" offset="0">
        <phase duration="42" state="GGrGGr"/>
        <phase duration="3"  state="yyryyr"/>
        <phase duration="42" state="rrGrrG"/>
        <phase duration="3"  state="rryrry"/>
    </tlLogic>
    <tlLogic id="B1" type="static" programID="0" offset="0">
        <phase duration="42" state="GGrrGGrr"/>
        <phase duration="3"  state="yyrryyrr"/>
        <phase duration="42" state="rrGGrrGG"/>
        <phase duration="3"  state="rryyrryy"/>
    </tlLogic>
    <tlLogic id="B2" type="static" programID="0" offset="0">
        <phase duration="42" state="GGrGGr"/>
        <phase duration="3"  state="yyryyr"/>
        <phase duration="42" state="rrGrrG"/>
        <phase duration="3"  state="rryrry"/>
    </tlLogic>
    <tlLogic id="C0" type="static" programID="0" offset="0">
        <phase duration="42" state="GrGr"/>
        <phase duration="3"  state="yryr"/>
        <phase duration="42" state="rGrG"/>
        <phase duration="3"  state="ryry"/>
    </tlLogic>
    <tlLogic id="C1" type="static" programID="0" offset="0">
        <phase duration="42" state="rGGrGG"/>
        <phase duration="3"  state="ryyryy"/>
        <phase duration="42" state="GrrGrr"/>
        <phase duration="3"  state="yrryrr"/>
    </tlLogic>
    <tlLogic id="C2" type="static" programID="0" offset="0">
        <phase duration="42" state="GrGr"/>
        <phase duration="3"  state="yryr"/>
        <phase duration="42" state="rGrG"/>
        <phase duration="3"  state="ryry"/>
    </tlLogic>

    <junction id="A0" type="traffic_light" x="100.00" y="100.00" incLanes="A1A0_0 B0A0_0 bottom0A0_0 left0A0_0" intLanes=":A0_0_0 :A0_1_0 :A0_2_0 :A0_3_0" shape="96.80,107.20 103.20,107.20 103.64,104.98 104.20,104.20 104.98,103.64 105.98,103.31 107.20,103.20 107.20,96.80 104.98,96.36 104.20,95.80 103.64,95.02 103.31,94.02 103.20,92.80 96.80,92.80 96.36,95.02 95.80,95.80 95.02,96.36 94.02,96.69 92.80,96.80 92.80,103.20 95.02,103.64 95.80,104.20 96.36,104.98 96.69,105.98">
        <request index="0" response="0000" foes="1010" cont="0"/>
        <request index="1" response="0101" foes="0101" cont="0"/>
        <request index="2" response="0000" foes="1010" cont="0"/>
        <request index="3" response="0101" foes="0101" cont="0"/>
    </junction>
    <junction id="A1" type="traffic_light" x="100.00" y="200.00" incLanes="A2A1_0 B1A1_0 B1A1_1 A0A1_0 left1A1_0 left1A1_1" intLanes=":A1_0_0 :A1_1_0 :A1_1_1 :A1_3_0 :A1_4_0 :A1_4_1" shape="96.80,210.40 103.20,210.40 103.64,208.18 104.20,207.40 104.98,206.84 105.98,206.51 107.20,206.40 107.20,193.60 104.98,193.16 104.20,192.60 103.64,191.82 103.31,190.82 103.20,189.60 96.80,189.60 96.36,191.82 95.80,192.60 95.02,193.16 94.02,193.49 92.80,193.60 92.80,206.40 95.02,206.84 95.80,207.40 96.36,208.18 96.69,209.18">
        <request index="0" response="110110" foes="110110" cont="0"/>
        <request index="1" response="000000" foes="001001" cont="0"/>
        <request index="2" response="000000" foes="001001" cont="0"/>
        <request index="3" response="110110" foes="110110" cont="0"/>
        <request index="4" response="000000" foes="001001" cont="0"/>
        <request index="5" response="000000" foes="001001" cont="0"/>
    </junction>
    <junction id="A2" type="traffic_light" x="100.00" y="300.00" incLanes="top0A2_0 B2A2_0 A1A2_0 left2A2_0" intLanes=":A2_0_0 :A2_1_0 :A2_2_0 :A2_3_0" shape="96.80,307.20 103.20,307.20 103.64,304.98 104.20,304.20 104.98,303.64 105.98,303.31 107.20,303.20 107.20,296.80 104.98,296.36 104.20,295.80 103.64,295.02 103.31,294.02 103.20,292.80 96.80,292.80 96.36,295.02 95.80,295.80 95.02,296.36 94.02,296.69 92.80,296.80 92.80,303.20 95.02,303.64 95.80,304.20 96.36,304.98 96.69,305.98">
        <request index="0" response="0000" foes="1010" cont="0"/>
        <request index="1" response="0101" foes="0101" cont="0"/>
        <request index="2" response="0000" foes="1010" cont="0"/>
        <request index="3" response="0101" foes="0101" cont="0"/>
    </junction>
    <junction id="B0" type="traffic_light" x="200.00" y="100.00" incLanes="B1B0_0 B1B0_1 C0B0_0 bottom1B0_0 bottom1B0_1 A0B0_0" intLanes=":B0_0_0 :B0_0_1 :B0_2_0 :B0_3_0 :B0_3_1 :B0_5_0" shape="193.60,107.20 206.40,107.20 206.84,104.98 207.40,104.20 208.18,103.64 209.18,103.31 210.40,103.20 210.40,96.80 208.18,96.36 207.40,95.80 206.84,95.02 206.51,94.02 206.40,92.80 193.60,92.80 193.16,95.02 192.60,95.80 191.82,96.36 190.82,96.69 189.60,96.80 189.60,103.20 191.82,103.64 192.60,104.20 193.16,104.98 193.49,105.98">
        <request index="0" response="000000" foes="100100" cont="0"/>
        <request index="1" response="000000" foes="100100" cont="0"/>
        <request index="2" response="011011" foes="011011" cont="0"/>
        <request index="3" response="000000" foes="100100" cont="0"/>
        <request index="4" response="000000" foes="100100" cont="0"/>
        <request index="5" response="011011" foes="011011" cont="0"/>
    </junction>
    <junction id="B1" type="traffic_light" x="200.00" y="200.00" incLanes="B2B1_0 B2B1_1 C1B1_0 C1B1_1 B0B1_0 B0B1_1 A1B1_0 A1B1_1" intLanes=":B1_0_0 :B1_0_1 :B1_2_0 :B1_2_1 :B1_4_0 :B1_4_1 :B1_6_0 :B1_6_1" shape="193.60,210.40 206.40,210.40 206.84,208.18 207.40,207.40 208.18,206.84 209.18,206.51 210.40,206.40 210.40,193.60 208.18,193.16 207.40,192.60 206.84,191.82 206.51,190.82 206.40,189.60 193.60,189.60 193.16,191.82 192.60,192.60 191.82,193.16 190.82,193.49 189.60,193.60 189.60,206.40 191.82,206.84 192.60,207.40 193.16,208.18 193.49,209.18">
        <request index="0" response="00000000" foes="11001100" cont="0"/>
        <request index="1" response="00000000" foes="11001100" cont="0"/>
        <request index="2" response="00110011" foes="00110011" cont="0"/>
        <request index="3" response="00110011" foes="00110011" cont="0"/>
        <request index="4" response="00000000" foes="11001100" cont="0"/>
        <request index="5" response="00000000" foes="11001100" cont="0"/>
        <request index="6" response="00110011" foes="00110011" cont="0"/>
        <request index="7" response="00110011" foes="00110011" cont="0"/>
    </junction>
    <junction id="B2" type="traffic_light" x="200.00" y="300.00" incLanes="top1B2_0 top1B2_1 C2B2_0 B1B2_0 B1B2_1 A2B2_0" intLanes=":B2_0_0 :B2_0_1 :B2_2_0 :B2_3_0 :B2_3_1 :B2_5_0" shape="193.60,307.20 206.40,307.20 206.84,304.98 207.40,304.20 208.18,303.64 209.18,303.31 210.40,303.20 210.40,296.80 208.18,296.36 207.40,295.80 206.84,295.02 206.51,294.02 206.40,292.80 193.60,292.80 193.16,295.02 192.60,295.80 191.82,296.36 190.82,296.69 189.60,296.80 189.60,303.20 191.82,303.64 192.60,304.20 193.16,304.98 193.49,305.98">
        <request index="0" response="000000" foes="100100" cont="0"/>
        <request index="1" response="000000" foes="100100" cont="0"/>
        <request index="2" response="011011" foes="011011" cont="0"/>
        <request index="3" response="000000" foes="100100" cont="0"/>
        <request index="4" response="000000" foes="100100" cont="0"/>
        <request index="5" response="011011" foes="011011" cont="0"/>
    </junction>
    <junction id="C0" type="traffic_light" x="300.00" y="100.00" incLanes="C1C0_0 right0C0_0 bottom2C0_0 B0C0_0" intLanes=":C0_0_0 :C0_1_0 :C0_2_0 :C0_3_0" shape="296.80,107.20 303.20,107.20 303.64,104.98 304.20,104.20 304.98,103.64 305.98,103.31 307.20,103.20 307.20,96.80 304.98,96.36 304.20,95.80 303.64,95.02 303.31,94.02 303.20,92.80 296.80,92.80 296.36,95.02 295.80,95.80 295.02,96.36 294.02,96.69 292.80,96.80 292.80,103.20 295.02,103.64 295.80,104.20 296.36,104.98 296.69,105.98">
        <request index="0" response="0000" foes="1010" cont="0"/>
        <request index="1" response="0101" foes="0101" cont="0"/>
        <request index="2" response="0000" foes="1010" cont="0"/>
        <request index="3" response="0101" foes="0101" cont="0"/>
    </junction>
    <junction id="C1" type="traffic_light" x="300.00" y="200.00" incLanes="C2C1_0 right1C1_0 right1C1_1 C0C1_0 B1C1_0 B1C1_1" intLanes=":C1_0_0 :C1_1_0 :C1_1_1 :C1_3_0 :C1_4_0 :C1_4_1" shape="296.80,210.40 303.20,210.40 303.64,208.18 304.20,207.40 304.98,206.84 305.98,206.51 307.20,206.40 307.20,193.60 304.98,193.16 304.20,192.60 303.64,191.82 303.31,190.82 303.20,189.60 296.80,189.60 296.36,191.82 295.80,192.60 295.02,193.16 294.02,193.49 292.80,193.60 292.80,206.40 295.02,206.84 295.80,207.40 296.36,208.18 296.69,209.18">
        <request index="0" response="110110" foes="110110" cont="0"/>
        <request index="1" response="000000" foes="001001" cont="0"/>
        <request index="2" response="000000" foes="001001" cont="0"/>
        <request index="3" response="110110" foes="110110" cont="0"/>
        <request index="4" response="000000" foes="001001" cont="0"/>
        <request index="5" response="000000" foes="001001" cont="0"/>
    </junction>
    <junction id="C2" type="traffic_light" x="300.00" y="300.00" incLanes="top2C2_0 right2C2_0 C1C2_0 B2C2_0" intLanes=":C2_0_0 :C2_1_0 :C2_2_0 :C2_3_0" shape="296.80,307.20 303.20,307.20 303.64,304.98 304.20,304.20 304.98,303.64 305.98,303.31 307.20,303.20 307.20,296.80 304.98,296.36 304.20,295.80 303.64,295.02 303.31,294.02 303.20,292.80 296.80,292.80 296.36,295.02 295.80,295.80 295.02,296.36 294.02,296.69 292.80,296.80 292.80,303.20 295.02,303.64 295.80,304.20 296.36,304.98 296.69,305.98">
        <request index="0" response="0000" foes="1010" cont="0"/>
        <request index="1" response="0101" foes="0101" cont="0"/>
        <request index="2" response="0000" foes="1010" cont="0"/>
        <request index="3" response="0101" foes="0101" cont="0"/>
    </junction>
    <junction id="bottom0" type="dead_end" x="100.00" y="0.00" incLanes="A0bottom0_0" intLanes="" shape="100.00,0.00 96.80,0.00 100.00,0.00" fringe="outer"/>
    <junction id="bottom1" type="dead_end" x="200.00" y="0.00" incLanes="B0bottom1_0 B0bottom1_1" intLanes="" shape="200.00,0.00 193.60,0.00 200.00,0.00" fringe="outer"/>
    <junction id="bottom2" type="dead_end" x="300.00" y="0.00" incLanes="C0bottom2_0" intLanes="" shape="300.00,0.00 296.80,0.00 300.00,0.00" fringe="outer"/>
    <junction id="left0" type="dead_end" x="0.00" y="100.00" incLanes="A0left0_0" intLanes="" shape="0.00,100.00 0.00,103.20 0.00,100.00" fringe="outer"/>
    <junction id="left1" type="dead_end" x="0.00" y="200.00" incLanes="A1left1_0 A1left1_1" intLanes="" shape="0.00,200.00 0.00,206.40 0.00,200.00" fringe="outer"/>
    <junction id="left2" type="dead_end" x="0.00" y="300.00" incLanes="A2left2_0" intLanes="" shape="0.00,300.00 0.00,303.20 0.00,300.00" fringe="outer"/>
    <junction id="right0" type="dead_end" x="400.00" y="100.00" incLanes="C0right0_0" intLanes="" shape="400.00,100.00 400.00,96.80 400.00,100.00" fringe="outer"/>
    <junction id="right1" type="dead_end" x="400.00" y="200.00" incLanes="C1right1_0 C1right1_1" intLanes="" shape="400.00,200.00 400.00,193.60 400.00,200.00" fringe="outer"/>