<?xml version="1.0" encoding="UTF-8"?>

<!-- generated on 2022-02-16 14:23:55 by Eclipse SUMO netedit Version 1.12.0
<configuration xmlns:xsi="http://www.w3.org/2001/XMLSchema-instance" xsi:noNamespaceSchemaLocation="http://sumo.dlr.de/xsd/netconvertConfiguration.xsd">

    <input>
        <sumo-net-file value="grid-alt.net.xml"/>
    </input>

    <output>
        <output-file value="grid-alt.net.xml"/>
    </output>

    <processing>
        <geometry.min-radius.fix.railways value="false"/>
        <geometry.max-grade.fix value="false"/>
        <offset.disable-normalization value="true"/>
        <lefthand value="false"/>
    </processing>

    <junctions>
        <no-turnarounds value="true"/>
        <junctions.corner-detail value="5"/>
        <junctions.limit-turn-speed value="5.5"/>
        <rectangular-lane-cut value="false"/>
    </junctions>

    <pedestrian>
        <walkingareas value="false"/>
    </pedestrian>

    <report>
        <aggregate-warnings value="5"/>
    </report>

</configuration>
-->

<net version="1.9" junctionCornerDetail="5" limitTurnSpeed="5.50" xmlns:xsi="http://www.w3.org/2001/XMLSchema-instance" xsi:noNamespaceSchemaLocation="http://sumo.dlr.de/xsd/net_file.xsd">

    <location netOffset="0.00,0.00" convBoundary="0.00,0.00,800.00,800.00" origBoundary="0.00,0.00,800.00,800.00" projParameter="!"/>

    <edge id=":A0_0" function="internal">
        <lane id=":A0_0_0" index="0" speed="13.89" length="27.20" shape="198.40,213.60 198.40,186.40"/>
    </edge>
    <edge id=":A0_1" function="internal">
        <lane id=":A0_1_0" index="0" speed="13.89" length="14.40" shape="207.20,208.00 192.80,208.00"/>
        <lane id=":A0_1_1" index="1" speed="13.89" length="14.40" shape="207.20,204.80 192.80,204.80"/>
        <lane id=":A0_1_2" index="2" speed="13.89" length="14.40" shape="207.20,201.60 192.80,201.60"/>
    </edge>
    <edge id=":A0_4" function="internal">
        <lane id=":A0_4_0" index="0" speed="13.89" length="27.20" shape="201.60,186.40 201.60,213.60"/>
    </edge>
    <edge id=":A0_5" function="internal">
        <lane id=":A0_5_0" index="0" speed="13.89" length="14.40" shape="192.80,192.00 207.20,192.00"/>
        <lane id=":A0_5_1" index="1" speed="13.89" length="14.40" shape="192.80,195.20 207.20,195.20"/>
        <lane id=":A0_5_2" index="2" speed="13.89" length="14.40" shape="192.80,198.40 207.20,198.40"/>
    </edge>
    <edge id=":A1_0" function="internal">
        <lane id=":A1_0_0" index="0" speed="13.89" length="20.80" shape="198.40,410.40 198.40,389.60"/>
    </edge>
    <edge id=":A1_1" function="internal">
        <lane id=":A1_1_0" index="0" speed="13.89" length="14.40" shape="207.20,404.80 192.80,404.80"/>
        <lane id=":A1_1_1" index="1" speed="13.89" length="14.40" shape="207.20,401.60 192.80,401.60"/>
    </edge>
    <edge id=":A1_3" function="internal">
        <lane id=":A1_3_0" index="0" speed="13.89" length="20.80" shape="201.60,389.60 201.60,410.40"/>
    </edge>
    <edge id=":A1_4" function="internal">
        <lane id=":A1_4_0" index="0" speed="13.89" length="14.40" shape="192.80,395.20 207.20,395.20"/>
        <lane id=":A1_4_1" index="1" speed="13.89" length="14.40" shape="192.80,398.40 207.20,398.40"/>
    </edge>
    <edge id=":A2_0" function="internal">
        <lane id=":A2_0_0" index="0" speed="13.89" length="14.40" shape="198.40,607.20 198.40,592.80"/>
    </edge>
    <edge id=":A2_1" function="internal">
        <lane id=":A2_1_0" index="0" speed="13.89" length="14.40" shape="207.20,601.60 192.80,601.60"/>
    </edge>
    <edge id=":A2_2" function="internal">
        <lane id=":A2_2_0" index="0" speed="13.89" length="14.40" shape="201.60,592.80 201.60,607.20"/>
    </edge>
    <edge id=":A2_3" function="internal">
        <lane id=":A2_3_0" index="0" speed="13.89" length="14.40" shape="192.80,598.40 207.20,598.40"/>
    </edge>
    <edge id=":B0_0" function="internal">
        <lane id=":B0_0_0" index="0" speed="13.89" length="27.20" shape="395.20,213.60 395.20,186.40"/>
        <lane id=":B0_0_1" index="1" speed="13.89" length="27.20" shape="398.40,213.60 398.40,186.40"/>
    </edge>
    <edge id=":B0_2" function="internal">
        <lane id=":B0_2_0" index="0" speed="13.89" length="20.80" shape="410.40,208.00 389.60,208.00"/>
        <lane id=":B0_2_1" index="1" speed="13.89" length="20.80" shape="410.40,204.80 389.60,204.80"/>
        <lane id=":B0_2_2" index="2" speed="13.89" length="20.80" shape="410.40,201.60 389.60,201.60"/>
    </edge>
    <edge id=":B0_5" function="internal">
        <lane id=":B0_5_0" index="0" speed="13.89" length="27.20" shape="404.80,186.40 404.80,213.60"/>
        <lane id=":B0_5_1" index="1" speed="13.89" length="27.20" shape="401.60,186.40 401.60,213.60"/>
    </edge>
    <edge id=":B0_7" function="internal">
        <lane id=":B0_7_0" index="0" speed="13.89" length="20.80" shape="389.60,192.00 410.40,192.00"/>
        <lane id=":B0_7_1" index="1" speed="13.89" length="20.80" shape="389.60,195.20 410.40,195.20"/>
        <lane id=":B0_7_2" index="2" speed="13.89" length="20.80" shape="389.60,198.40 410.40,198.40"/>
    </edge>
    <edge id=":B1_0" function="internal">
        <lane id=":B1_0_0" index="0" speed="13.89" length="20.80" shape="395.20,410.40 395.20,389.60"/>
        <lane id=":B1_0_1" index="1" speed="13.89" length="20.80" shape="398.40,410.40 398.40,389.60"/>
    </edge>
    <edge id=":B1_2" function="internal">
        <lane id=":B1_2_0" index="0" speed="13.89" length="20.80" shape="410.40,404.80 389.60,404.80"/>
        <lane id=":B1_2_1" index="1" speed="13.89" length="20.80" shape="410.40,401.60 389.60,401.60"/>
    </edge>
    <edge id=":B1_4" function="internal">
        <lane id=":B1_4_0" index="0" speed="13.89" length="20.80" shape="404.80,389.60 404.80,410.40"/>
        <lane id=":B1_4_1" index="1" speed="13.89" length="20.80" shape="401.60,389.60 401.60,410.40"/>
    </edge>
    <edge id=":B1_6" function="internal">
        <lane id=":B1_6_0" index="0" speed="13.89" length="20.80" shape="389.60,395.20 410.40,395.20"/>
        <lane id=":B1_6_1" index="1" speed="13.89" length="20.80" shape="389.60,398.40 410.40,398.40"/>
    </edge>
    <edge id=":B2_0" function="internal">
        <lane id=":B2_0_0" index="0" speed="13.89" length="14.40" shape="395.20,607.20 395.20,592.80"/>
        <lane id=":B2_0_1" index="1" speed="13.89" length="14.40" shape="398.40,607.20 398.40,592.80"/>
    </edge>
    <edge id=":B2_2" function="internal">
        <lane id=":B2_2_0" index="0" speed="13.89" length="20.80" shape="410.40,601.60 389.60,601.60"/>
    </edge>
    <edge id=":B2_3" function="internal">
        <lane id=":B2_3_0" index="0" speed="13.89" length="14.40" shape="404.80,592.80 404.80,607.20"/>
        <lane id=":B2_3_1" index="1" speed="13.89" length="14.40" shape="401.60,592.80 401.60,607.20"/>
    </edge>
    <edge id=":B2_5" function="internal">
        <lane id=":B2_5_0" index="0" speed="13.89" length="20.80" shape="389.60,598.40 410.40,598.40"/>
    </edge>
    <edge id=":C0_0" function="internal">
        <lane id=":C0_0_0" index="0" speed="13.89" length="27.20" shape="592.00,213.60 592.00,186.40"/>
        <lane id=":C0_0_1" index="1" speed="13.89" length="27.20" shape="595.20,213.60 595.20,186.40"/>
        <lane id=":C0_0_2" index="2" speed="13.89" length="27.20" shape="598.40,213.60 598.40,186.40"/>
    </edge>
    <edge id=":C0_3" function="internal">
        <lane id=":C0_3_0" index="0" speed="13.89" length="27.20" shape="613.60,208.00 586.40,208.00"/>
        <lane id=":C0_3_1" index="1" speed="13.89" length="27.20" shape="613.60,204.80 586.40,204.80"/>
        <lane id=":C0_3_2" index="2" speed="13.89" length="27.20" shape="613.60,201.60 586.40,201.60"/>
    </edge>
    <edge id=":C0_6" function="internal">
        <lane id=":C0_6_0" index="0" speed="13.89" length="27.20" shape="608.00,186.40 608.00,213.60"/>
        <lane id=":C0_6_1" index="1" speed="13.89" length="27.20" shape="604.80,186.40 604.80,213.60"/>
        <lane id=":C0_6_2" index="2" speed="13.89" length="27.20" shape="601.60,186.40 601.60,213.60"/>
    </edge>
    <edge id=":C0_9" function="internal">
        <lane id=":C0_9_0" index="0" speed="13.89" length="27.20" shape="586.40,192.00 613.60,192.00"/>
        <lane id=":C0_9_1" index="1" speed="13.89" length="27.20" shape="586.40,195.20 613.60,195.20"/>
        <lane id=":C0_9_2" index="2" speed="13.89" length="27.20" shape="586.40,198.40 613.60,198.40"/>
    </edge>
    <edge id=":C1_0" function="internal">
        <lane id=":C1_0_0" index="0" speed="13.89" length="20.80" shape="592.00,410.40 592.00,389.60"/>
        <lane id=":C1_0_1" index="1" speed="13.89" length="20.80" shape="595.20,410.40 595.20,389.60"/>
        <lane id=":C1_0_2" index="2" speed="13.89" length="20.80" shape="598.40,410.40 598.40,389.60"/>
    </edge>
    <edge id=":C1_3" function="internal">
        <lane id=":C1_3_0" index="0" speed="13.89" length="27.20" shape="613.60,404.80 586.40,404.80"/>
        <lane id=":C1_3_1" index="1" speed="13.89" length="27.20" shape="613.60,401.60 586.40,401.60"/>
    </edge>
    <edge id=":C1_5" function="internal">
        <lane id=":C1_5_0" index="0" speed="13.89" length="20.80" shape="608.00,389.60 608.00,410.40"/>
        <lane id=":C1_5_1" index="1" speed="13.89" length="20.80" shape="604.80,389.60 604.80,410.40"/>
        <lane id=":C1_5_2" index="2" speed="13.89" length="20.80" shape="601.60,389.60 601.60,410.40"/>
    </edge>
    <edge id=":C1_8" function="internal">
        <lane id=":C1_8_0" index="0" speed="13.89" length="27.20" shape="586.40,395.20 613.60,395.20"/>
        <lane id=":C1_8_1" index="1" speed="13.89" length="27.20" shape="586.40,398.40 613.60,398.40"/>
    </edge>
    <edge id=":C2_0" function="internal">
        <lane id=":C2_0_0" index="0" speed="13.89" length="14.40" shape="592.00,607.20 592.00,592.80"/>
        <lane id=":C2_0_1" index="1" speed="13.89" length="14.40" shape="595.20,607.20 595.20,592.80"/>
        <lane id=":C2_0_2" index="2" speed="13.89" length="14.40" shape="598.40,607.20 598.40,592.80"/>
    </edge>
    <edge id=":C2_3" function="internal">
        <lane id=":C2_3_0" index="0" speed="13.89" length="27.20" shape="613.60,601.60 586.40,601.60"/>
    </edge>
    <edge id=":C2_4" function="internal">
        <lane id=":C2_4_0" index="0" speed="13.89" length="14.40" shape="608.00,592.80 608.00,607.20"/>
        <lane id=":C2_4_1" index="1" speed="13.89" length="14.40" shape="604.80,592.80 604.80,607.20"/>
        <lane id=":C2_4_2" index="2" speed="13.89" length="14.40" shape="601.60,592.80 601.60,607.20"/>
    </edge>
    <edge id=":C2_7" function="internal">
        <lane id=":C2_7_0" index="0" speed="13.89" length="27.20" shape="586.40,598.40 613.60,598.40"/>
    </edge>

    <edge id="A0A1" from="A0" to="A1" priority="-1">
        <lane id="A0A1_0" index="0" speed="13.89" length="176.00" shape="201.60,213.60 201.60,389.60"/>
    </edge>
    <edge id="A0B0" from="A0" to="B0" priority="-1">
        <lane id="A0B0_0" index="0" speed="13.89" length="182.40" shape="207.20,192.00 389.60,192.00"/>
        <lane id="A0B0_1" index="1" speed="13.89" length="182.40" shape="207.20,195.20 389.60,195.20"/>
        <lane id="A0B0_2" index="2" speed="13.89" length="182.40" shape="207.20,198.40 389.60,198.40"/>
    </edge>
    <edge id="A0bottom0" from="A0" to="bottom0" priority="-1">
        <lane id="A0bottom0_0" index="0" speed="13.89" length="186.40" shape="198.40,186.40 198.40,0.00"/>
    </edge>
    <edge id="A0left0" from="A0" to="left0" priority="-1">
        <lane id="A0left0_0" index="0" speed="13.89" length="192.80" shape="192.80,208.00 0.00,208.00"/>
        <lane id="A0left0_1" index="1" speed="13.89" length="192.80" shape="192.80,204.80 0.00,204.80"/>
        <lane id="A0left0_2" index="2" speed="13.89" length="192.80" shape="192.80,201.60 0.00,201.60"/>
    </edge>
    <edge id="A1A0" from="A1" to="A0" priority="-1">
        <lane id="A1A0_0" index="0" speed="13.89" length="176.00" shape="198.40,389.60 198.40,213.60"/>
    </edge>
    <edge id="A1A2" from="A1" to="A2" priority="-1">
        <lane id="A1A2_0" index="0" speed="13.89" length="182.40" shape="201.60,410.40 201.60,592.80"/>
    </edge>
    <edge id="A1B1" from="A1" to="B1" priority="-1">
        <lane id="A1B1_0" index="0" speed="13.89" length="182.40" shape="207.20,395.20 389.60,395.20"/>
        <lane id="A1B1_1" index="1" speed="13.89" length="182.40" shape="207.20,398.40 389.60,398.40"/>
    </edge>
    <edge id="A1left1" from="A1" to="left1" priority="-1">
        <lane id="A1left1_0" index="0" speed="13.89" length="192.80" shape="192.80,404.80 0.00,404.80"/>
        <lane id="A1left1_1" index="1" speed="13.89" length="192.80" shape="192.80,401.60 0.00,401.60"/>
    </edge>
    <edge id="A2A1" from="A2" to="A1" priority="-1">
        <lane id="A2A1_0" index="0" speed="13.89" length="182.40" shape="198.40,592.80 198.40,410.40"/>
    </edge>
    <edge id="A2B2" from="A2" to="B2" priority="-1">
        <lane id="A2B2_0" index="0" speed="13.89" length="182.40" shape="207.20,598.40 389.60,598.40"/>
    </edge>
    <edge id="A2left2" from="A2" to="left2" priority="-1">
        <lane id="A2left2_0" index="0" speed="13.89" length="192.80" shape="192.80,601.60 0.00,601.60"/>
    </edge>
    <edge id="A2top0" from="A2" to="top0" priority="-1">
        <lane id="A2top0_0" index="0" speed="13.89" length="192.80" shape="201.60,607.20 201.60,800.00"/>
    </edge>
    <edge id="B0A0" from="B0" to="A0" priority="-1">
        <lane id="B0A0_0" index="0" speed="13.89" length="182.40" shape="389.60,208.00 207.20,208.00"/>
        <lane id="B0A0_1" index="1" speed="13.89" length="182.40" shape="389.60,204.80 207.20,204.80"/>
        <lane id="B0A0_2" index="2" speed="13.89" length="182.40" shape="389.60,201.60 207.20,201.60"/>
    </edge>
    <edge id="B0B1" from="B0" to="B1" priority="-1">
        <lane id="B0B1_0" index="0" speed="13.89" length="176.00" shape="404.80,213.60 404.80,389.60"/>
        <lane id="B0B1_1" index="1" speed="13.89" length="176.00" shape="401.60,213.60 401.60,389.60"/>
    </edge>
    <edge id="B0C0" from="B0" to="C0" priority="-1">
        <lane id="B0C0_0" index="0" speed="13.89" length="176.00" shape="410.40,192.00 586.40,192.00"/>
        <lane id="B0C0_1" index="1" speed="13.89" length="176.00" shape="410.40,195.20 586.40,195.20"/>
        <lane id="B0C0_2" index="2" speed="13.89" length="176.00" shape="410.40,198.40 586.40,198.40"/>
    </edge>
    <edge id="B0bottom1" from="B0" to="bottom1" priority="-1">
        <lane id="B0bottom1_0" index="0" speed="13.89" length="186.40" shape="395.20,186.40 395.20,0.00"/>
        <lane id="B0bottom1_1" index="1" speed="13.89" length="186.40" shape="398.40,186.40 398.40,0.00"/>
    </edge>
    <edge id="B1A1" from="B1" to="A1" priority="-1">
        <lane id="B1A1_0" index="0" speed="13.89" length="182.40" shape="389.60,404.80 207.20,404.80"/>
        <lane id="B1A1_1" index="1" speed="13.89" length="182.40" shape="389.60,401.60 207.20,401.60"/>
    </edge>
    <edge id="B1B0" from="B1" to="B0" priority="-1">
        <lane id="B1B0_0" index="0" speed="13.89" length="176.00" shape="395.20,389.60 395.20,213.60"/>
        <lane id="B1B0_1" index="1" speed="13.89" length="176.00" shape="398.40,389.60 398.40,213.60"/>
    </edge>
    <edge id="B1B2" from="B1" to="B2" priority="-1">
        <lane id="B1B2_0" index="0" speed="13.89" length="182.40" shape="404.80,410.40 404.80,592.80"/>
        <lane id="B1B2_1" index="1" speed="13.89" length="182.40" shape="401.60,410.40 401.60,592.80"/>
    </edge>
    <edge id="B1C1" from="B1" to="C1" priority="-1">
        <lane id="B1C1_0" index="0" speed="13.89" length="176.00" shape="410.40,395.20 586.40,395.20"/>
        <lane id="B1C1_1" index="1" speed="13.89" length="176.00" shape="410.40,398.40 586.40,398.40"/>
    </edge>
    <edge id="B2A2" from="B2" to="A2" priority="-1">
        <lane id="B2A2_0" index="0" speed="13.89" length="182.40" shape="389.60,601.60 207.20,601.60"/>
    </edge>
    <edge id="B2B1" from="B2" to="B1" priority="-1">
        <lane id="B2B1_0" index="0" speed="13.89" length="182.40" shape="395.20,592.80 395.20,410.40"/>
        <lane id="B2B1_1" index="1" speed="13.89" length="182.40" shape="398.40,592.80 398.40,410.40"/>
    </edge>
    <edge id="B2C2" from="B2" to="C2" priority="-1">
        <lane id="B2C2_0" index="0" speed="13.89" length="176.00" shape="410.40,598.40 586.40,598.40"/>
    </edge>
    <edge id="B2top1" from="B2" to="top1" priority="-1">
        <lane id="B2top1_0" index="0" speed="13.89" length="192.80" shape="404.80,607.20 404.80,800.00"/>
        <lane id="B2top1_1" index="1" speed="13.89" length="192.80" shape="401.60,607.20 401.60,800.00"/>
    </edge>
    <edge id="C0B0" from="C0" to="B0" priority="-1">
        <lane id="C0B0_0" index="0" speed="13.89" length="176.00" shape="586.40,208.00 410.40,208.00"/>
        <lane id="C0B0_1" index="1" speed="13.89" length="176.00" shape="586.40,204.80 410.40,204.80"/>
        <lane id="C0B0_2" index="2" speed="13.89" length="176.00" shape="586.40,201.60 410.40,201.60"/>
    </edge>
    <edge id="C0C1" from="C0" to="C1" priority="-1">
        <lane id="C0C1_0" index="0" speed="13.89" length="176.00" shape="608.00,213.60 608.00,389.60"/>
        <lane id="C0C1_1" index="1" speed="13.89" length="176.00" shape="604.80,213.60 604.80,389.60"/>
        <lane id="C0C1_2" index="2" speed="13.89" length="176.00" shape="601.60,213.60 601.60,389.60"/>
    </edge>
    <edge id="C0bottom2" from="C0" to="bottom2" priority="-1">
        <lane id="C0bottom2_0" index="0" speed="13.89" length="186.40" shape="592.00,186.40 592.00,0.00"/>
        <lane id="C0bottom2_1" index="1" speed="13.89" length="186.40" shape="595.20,186.40 595.20,0.00"/>
        <lane id="C0bottom2_2" index="2" speed="13.89" length="186.40" shape="598.40,186.40 598.40,0.00"/>
    </edge>
    <edge id="C0right0" from="C0" to="right0" priority="-1">
        <lane id="C0right0_0" index="0" speed="13.89" length="186.40" shape="613.60,192.00 800.00,192.00"/>
        <lane id="C0right0_1" index="1" speed="13.89" length="186.40" shape="613.60,195.20 800.00,195.20"/>
        <lane id="C0right0_2" index="2" speed="13.89" length="186.40" shape="613.60,198.40 800.00,198.40"/>
    </edge>
    <edge id="C1B1" from="C1" to="B1" priority="-1">
        <lane id="C1B1_0" index="0" speed="13.89" length="176.00" shape="586.40,404.80 410.40,404.80"/>
        <lane id="C1B1_1" index="1" speed="13.89" length="176.00" shape="586.40,401.60 410.40,401.60"/>
    </edge>
    <edge id="C1C0" from="C1" to="C0" priority="-1">
        <lane id="C1C0_0" index="0" speed="13.89" length="176.00" shape="592.00,389.60 592.00,213.60"/>
        <lane id="C1C0_1" index="1" speed="13.89" length="176.00" shape="595.20,389.60 595.20,213.60"/>
        <lane id="C1C0_2" index="2" speed="13.89" length="176.00" shape="598.40,389.60 598.40,213.60"/>
    </edge>
    <edge id="C1C2" from="C1" to="C2" priority="-1">
        <lane id="C1C2_0" index="0" speed="13.89" length="182.40" shape="608.00,410.40 608.00,592.80"/>
        <lane id="C1C2_1" index="1" speed="13.89" length="182.40" shape="604.80,410.40 604.80,592.80"/>
        <lane id="C1C2_2" index="2" speed="13.89" length="182.40" shape="601.60,410.40 601.60,592.80"/>
    </edge>
    <edge id="C1right1" from="C1" to="right1" priority="-1">
        <lane id="C1right1_0" index="0" speed="13.89" length="186.40" shape="613.60,395.20 800.00,395.20"/>
        <lane id="C1right1_1" index="1" speed="13.89" length="186.40" shape="613.60,398.40 800.00,398.40"/>
    </edge>
    <edge id="C2B2" from="C2" to="B2" priority="-1">
        <lane id="C2B2_0" index="0" speed="13.89" length="176.00" shape="586.40,601.60 410.40,601.60"/>
    </edge>
    <edge id="C2C1" from="C2" to="C1" priority="-1">
        <lane id="C2C1_0" index="0" speed="13.89" length="182.40" shape="592.00,592.80 592.00,410.40"/>
        <lane id="C2C1_1" index="1" speed="13.89" length="182.40" shape="595.20,592.80 595.20,410.40"/>
        <lane id="C2C1_2" index="2" speed="13.89" length="182.40" shape="598.40,592.80 598.40,410.40"/>
    </edge>
    <edge id="C2right2" from="C2" to="right2" priority="-1">
        <lane id="C2right2_0" index="0" speed="13.89" length="186.40" shape="613.60,598.40 800.00,598.40"/>
    </edge>
    <edge id="C2top2" from="C2" to="top2" priority="-1">
        <lane id="C2top2_0" index="0" speed="13.89" length="192.80" shape="608.00,607.20 608.00,800.00"/>
        <lane id="C2top2_1" index="1" speed="13.89" length="192.80" shape="604.80,607.20 604.80,800.00"/>
        <lane id="C2top2_2" index="2" speed="13.89" length="192.80" shape="601.60,607.20 601.60,800.00"/>
    </edge>
    <edge id="bottom0A0" from="bottom0" to="A0" priority="-1">
        <lane id="bottom0A0_0" index="0" speed="13.89" length="186.40" shape="201.60,0.00 201.60,186.40"/>
    </edge>
    <edge id="bottom1B0" from="bottom1" to="B0" priority="-1">
        <lane id="bottom1B0_0" index="0" speed="13.89" length="186.40" shape="404.80,0.00 404.80,186.40"/>
        <lane id="bottom1B0_1" index="1" speed="13.89" length="186.40" shape="401.60,0.00 401.60,186.40"/>
    </edge>
    <edge id="bottom2C0" from="bottom2" to="C0" priority="-1">
        <lane id="bottom2C0_0" index="0" speed="13.89" length="186.40" shape="608.00,0.00 608.00,186.40"/>
        <lane id="bottom2C0_1" index="1" speed="13.89" length="186.40" shape="604.80,0.00 604.80,186.40"/>
        <lane id="bottom2C0_2" index="2" speed="13.89" length="186.40" shape="601.60,0.00 601.60,186.40"/>
    </edge>
    <edge id="left0A0" from="left0" to="A0" priority="-1">
        <lane id="left0A0_0" index="0" speed="13.89" length="192.80" shape="0.00,192.00 192.80,192.00"/>
        <lane id="left0A0_1" index="1" speed="13.89" length="192.80" shape="0.00,195.20 192.80,195.20"/>
        <lane id="left0A0_2" index="2" speed="13.89" length="192.80" shape="0.00,198.40 192.80,198.40"/>
    </edge>
    <edge id="left1A1" from="left1" to="A1" priority="-1">
        <lane id="left1A1_0" index="0" speed="13.89" length="192.80" shape="0.00,395.20 192.80,395.20"/>
        <lane id="left1A1_1" index="1" speed="13.89" length="192.80" shape="0.00,398.40 192.80,398.40"/>
    </edge>
    <edge id="left2A2" from="left2" to="A2" priority="-1">
        <lane id="left2A2_0" index="0" speed="13.89" length="192.80" shape="0.00,598.40 192.80,598.40"/>
    </edge>
    <edge id="right0C0" from="right0" to="C0" priority="-1">
        <lane id="right0C0_0" index="0" speed="13.89" length="186.40" shape="800.00,208.00 613.60,208.00"/>
        <lane id="right0C0_1" index="1" speed="13.89" length="186.40" shape="800.00,204.80 613.60,204.80"/>
        <lane id="right0C0_2" index="2" speed="13.89" length="186.40" shape="800.00,201.60 613.60,201.60"/>
    </edge>
    <edge id="right1C1" from="right1" to="C1" priority="-1">
        <lane id="right1C1_0" index="0" speed="13.89" length="186.40" shape="800.00,404.80 613.60,404.80"/>
        <lane id="right1C1_1" index="1" speed="13.89" length="186.40" shape="800.00,401.60 613.60,401.60"/>
    </edge>
    <edge id="right2C2" from="right2" to="C2" priority="-1">
        <lane id="right2C2_0" index="0" speed="13.89" length="186.40" shape="800.00,601.60 613.60,601.60"/>
    </edge>
    <edge id="top0A2" from="top0" to="A2" priority="-1">
        <lane id="top0A2_0" index="0" speed="13.89" length="192.80" shape="198.40,800.00 198.40,607.20"/>
    </edge>
    <edge id="top1B2" from="top1" to="B2" priority="-1">
        <lane id="top1B2_0" index="0" speed="13.89" length="192.80" shape="395.20,800.00 395.20,607.20"/>
        <lane id="top1B2_1" index="1" speed="13.89" length="192.80" shape="398.40,800.00 398.40,607.20"/>
    </edge>
    <edge id="top2C2" from="top2" to="C2" priority="-1">
        <lane id="top2C2_0" index="0" speed="13.89" length="192.80" shape="592.00,800.00 592.00,607.20"/>
        <lane id="top2C2_1" index="1" speed="13.89" length="192.80" shape="595.20,800.00 595.20,607.20"/>
        <lane id="top2C2_2" index="2" speed="13.89" length="192.80" shape="598.40,800.00 598.40,607.20"/>
    </edge>

    <tlLogic id="A0" type="static" programID="0" offset="0">
        <phase duration="42" state="rrrGGGGgrrrGGGGg"/>
        <phase duration="3"  state="rrryyyyyrrryyyyy"/>
        <phase duration="42" state="GGgrrrrrGGgrrrrr"/>
        <phase duration="3"  state="yyyrrrrryyyrrrrr"/>
    </tlLogic>
    <tlLogic id="A1" type="static" programID="0" offset="0">
        <phase duration="42" state="rrrGGGgrrrGGGg"/>
        <phase duration="3"  state="rrryyyyrrryyyy"/>
        <phase duration="42" state="GGgrrrrGGgrrrr"/>
        <phase duration="3"  state="yyyrrrryyyrrrr"/>
    </tlLogic>
    <tlLogic id="A2" type="static" programID="0" offset="0">
        <phase duration="42" state="GGgrrrGGgrrr"/>
        <phase duration="3"  state="yyyrrryyyrrr"/>
        <phase duration="42" state="rrrGGgrrrGGg"/>
        <phase duration="3"  state="rrryyyrrryyy"/>
    </tlLogic>
    <tlLogic id="B0" type="static" programID="0" offset="0">
        <phase duration="42" state="rrrrGGGGgrrrrGGGGg"/>
        <phase duration="3"  state="rrrryyyyyrrrryyyyy"/>
        <phase duration="42" state="GGGgrrrrrGGGgrrrrr"/>
        <phase duration="3"  state="yyyyrrrrryyyyrrrrr"/>
    </tlLogic>
    <tlLogic id="B1" type="static" programID="0" offset="0">
        <phase duration="42" state="GGrrGGrr"/>
        <phase duration="3"  state="yyrryyrr"/>
        <phase duration="42" state="rrGGrrGG"/>
        <phase duration="3"  state="rryyrryy"/>
    </tlLogic>
    <tlLogic id="B2" type="static" programID="0" offset="0">
        <phase duration="42" state="GGGgrrrGGGgrrr"/>
        <phase duration="3"  state="yyyyrrryyyyrrr"/>
        <phase duration="42" state="rrrrGGgrrrrGGg"/>
        <phase duration="3"  state="rrrryyyrrrryyy"/>
    </tlLogic>
    <tlLogic id="C0" type="static" programID="0" offset="0">
        <phase duration="42" state="GGGGgrrrrrGGGGgrrrrr"/>
        <phase duration="3"  state="yyyyyrrrrryyyyyrrrrr"/>
        <phase duration="42" state="rrrrrGGGGgrrrrrGGGGg"/>
        <phase duration="3"  state="rrrrryyyyyrrrrryyyyy"/>
    </tlLogic>
    <tlLogic id="C1" type="static" programID="0" offset="0">
        <phase duration="42" state="GGGGgrrrrGGGGgrrrr"/>
        <phase duration="3"  state="yyyyyrrrryyyyyrrrr"/>
        <phase duration="42" state="rrrrrGGGgrrrrrGGGg"/>
        <phase duration="3"  state="rrrrryyyyrrrrryyyy"/>
    </tlLogic>
    <tlLogic id="C2" type="static" programID="0" offset="0">
        <phase duration="42" state="GGGGgrrrGGGGgrrr"/>
        <phase duration="3"  state="yyyyyrrryyyyyrrr"/>
        <phase duration="42" state="rrrrrGGgrrrrrGGg"/>
        <phase duration="3"  state="rrrrryyyrrrrryyy"/>
    </tlLogic>

    <junction id="A0" type="traffic_light" x="200.00" y="200.00" incLanes="A1A0_0 B0A0_0 B0A0_1 B0A0_2 bottom0A0_0 left0A0_0 left0A0_1 left0A0_2" intLanes=":A0_0_0 :A0_1_0 :A0_1_1 :A0_1_2 :A0_4_0 :A0_5_0 :A0_5_1 :A0_5_2" shape="196.80,213.60 203.20,213.60 203.64,211.38 204.20,210.60 204.98,210.04 205.98,209.71 207.20,209.60 207.20,190.40 204.98,189.96 204.20,189.40 203.64,188.62 203.31,187.62 203.20,186.40 196.80,186.40 196.36,188.62 195.80,189.40 195.02,189.96 194.02,190.29 192.80,190.40 192.80,209.60 195.02,210.04 195.80,210.60 196.36,211.38 196.69,212.38">
        <request index="0" response="11101110" foes="11101110" cont="0"/>
        <request index="1" response="00000000" foes="00010001" cont="0"/>
        <request index="2" response="00000000" foes="00010001" cont="0"/>
        <request index="3" response="00000000" foes="00010001" cont="0"/>
        <request index="4" response="11101110" foes="11101110" cont="0"/>
        <request index="5" response="00000000" foes="00010001" cont="0"/>
        <request index="6" response="00000000" foes="00010001" cont="0"/>
        <request index="7" response="00000000" foes="00010001" cont="0"/>
    </junction>
    <junction id="A1" type="traffic_light" x="200.00" y="400.00" incLanes="A2A1_0 B1A1_0 B1A1_1 A0A1_0 left1A1_0 left1A1_1" intLanes=":A1_0_0 :A1_1_0 :A1_1_1 :A1_3_0 :A1_4_0 :A1_4_1" shape="196.80,410.40 203.20,410.40 203.64,408.18 204.20,407.40 204.98,406.84 205.98,406.51 207.20,406.40 207.20,393.60 204.98,393.16 204.20,392.60 203.64,391.82 203.31,390.82 203.20,389.60 196.80,389.60 196.36,391.82 195.80,392.60 195.02,393.16 194.02,393.49 192.80,393.60 192.80,406.40 195.02,406.84 195.80,407.40 196.36,408.18 196.69,409.18">
        <request index="0" response="110110" foes="110110" cont="0"/>
        <request index="1" response="000000" foes="001001" cont="0"/>
        <request index="2" response="000000" foes="001001" cont="0"/>
        <request index="3" response="110110" foes="110110" cont="0"/>
        <request index="4" response="000000" foes="001001" cont="0"/>
        <request index="5" response="000000" foes="001001" cont="0"/>
    </junction>
    <junction id="A2" type="traffic_light" x="200.00" y="600.00" incLanes="top0A2_0 B2A2_0 A1A2_0 left2A2_0" intLanes=":A2_0_0 :A2_1_0 :A2_2_0 :A2_3_0" shape="196.80,607.20 203.20,607.20 203.64,604.98 204.20,604.20 204.98,603.64 205.98,603.31 207.20,603.20 207.20,596.80 204.98,596.36 204.20,595.80 203.64,595.02 203.31,594.02 203.20,592.80 196.80,592.80 196.36,595.02 195.80,595.80 195.02,596.36 194.02,596.69 192.80,596.80 192.80,603.20 195.02,603.64 195.80,604.20 196.36,604.98 196.69,605.98">
        <request index="0" response="0000" foes="1010" cont="0"/>
        <request index="1" response="0101" foes="0101" cont="0"/>
        <request index="2" response="0000" foes="1010" cont="0"/>
        <request index="3" response="0101" foes="0101" cont="0"/>
    </junction>