<?xml version="1.0" encoding="UTF-8"?>

<!-- generated on 2022-02-16 13:24:59 by Eclipse SUMO netgenerate Version 1.12.0
<configuration xmlns:xsi="http://www.w3.org/2001/XMLSchema-instance" xsi:noNamespaceSchemaLocation="http://sumo.dlr.de/xsd/netgenerateConfiguration.xsd">

    <grid_network>
        <grid value="true"/>
        <grid.number value="4"/>
        <grid.length value="400"/>
        <grid.attach-length value="400"/>
    </grid_network>

    <output>
        <output-file value="grid-turns.net.xml"/>
    </output>

    <building_defaults>
        <default.lanenumber value="3"/>
        <default-junction-type value="traffic_light"/>
    </building_defaults>

    <junctions>
        <no-turnarounds value="true"/>
    </junctions>

</configuration>
-->

<net version="1.9" junctionCornerDetail="5" limitTurnSpeed="5.50" xmlns:xsi="http://www.w3.org/2001/XMLSchema-instance" xsi:noNamespaceSchemaLocation="http://sumo.dlr.de/xsd/net_file.xsd">

    <location netOffset="0.00,0.00" convBoundary="0.00,0.00,2000.00,2000.00" origBoundary="0.00,0.00,2000.00,2000.00" projParameter="!"/>

    <edge id=":A0_0" function="internal">
        <lane id=":A0_0_0" index="0" speed="6.51" length="9.03" shape="392.00,413.60 391.65,411.15 390.60,409.40 388.85,408.35 386.40,408.00"/>
    </edge>
    <edge id=":A0_1" function="internal">
        <lane id=":A0_1_0" index="0" speed="13.89" length="27.20" shape="392.00,413.60 392.00,386.40"/>
        <lane id=":A0_1_1" index="1" speed="13.89" length="27.20" shape="395.20,413.60 395.20,386.40"/>
        <lane id=":A0_1_2" index="2" speed="13.89" length="27.20" shape="398.40,413.60 398.40,386.40"/>
    </edge>
    <edge id=":A0_4" function="internal">
        <lane id=":A0_4_0" index="0" speed="10.36" length="5.01" shape="398.40,413.60 399.11,408.64"/>
    </edge>
    <edge id=":A0_20" function="internal">
        <lane id=":A0_20_0" index="0" speed="10.36" length="19.50" shape="399.11,408.64 399.35,406.95 402.20,402.20 406.95,399.35 413.60,398.40"/>
    </edge>
    <edge id=":A0_5" function="internal">
        <lane id=":A0_5_0" index="0" speed="6.51" length="9.03" shape="413.60,408.00 411.15,408.35 409.40,409.40 408.35,411.15 408.00,413.60"/>
    </edge>
    <edge id=":A0_6" function="internal">
        <lane id=":A0_6_0" index="0" speed="13.89" length="27.20" shape="413.60,408.00 386.40,408.00"/>
        <lane id=":A0_6_1" index="1" speed="13.89" length="27.20" shape="413.60,404.80 386.40,404.80"/>
        <lane id=":A0_6_2" index="2" speed="13.89" length="27.20" shape="413.60,401.60 386.40,401.60"/>
    </edge>
    <edge id=":A0_9" function="internal">
        <lane id=":A0_9_0" index="0" speed="10.36" length="5.01" shape="413.60,401.60 408.64,400.89"/>
    </edge>
    <edge id=":A0_21" function="internal">
        <lane id=":A0_21_0" index="0" speed="10.36" length="19.50" shape="408.64,400.89 406.95,400.65 402.20,397.80 399.35,393.05 398.40,386.40"/>
    </edge>
    <edge id=":A0_10" function="internal">
        <lane id=":A0_10_0" index="0" speed="6.51" length="9.03" shape="408.00,386.40 408.35,388.85 409.40,390.60 411.15,391.65 413.60,392.00"/>
    </edge>
    <edge id=":A0_11" function="internal">
        <lane id=":A0_11_0" index="0" speed="13.89" length="27.20" shape="408.00,386.40 408.00,413.60"/>
        <lane id=":A0_11_1" index="1" speed="13.89" length="27.20" shape="404.80,386.40 404.80,413.60"/>
        <lane id=":A0_11_2" index="2" speed="13.89" length="27.20" shape="401.60,386.40 401.60,413.60"/>
    </edge>
    <edge id=":A0_14" function="internal">
        <lane id=":A0_14_0" index="0" speed="10.36" length="5.01" shape="401.60,386.40 400.89,391.36"/>
    </edge>
    <edge id=":A0_22" function="internal">
        <lane id=":A0_22_0" index="0" speed="10.36" length="19.50" shape="400.89,391.36 400.65,393.05 397.80,397.80 393.05,400.65 386.40,401.60"/>
    </edge>
    <edge id=":A0_15" function="internal">
        <lane id=":A0_15_0" index="0" speed="6.51" length="9.03" shape="386.40,392.00 388.85,391.65 390.60,390.60 391.65,388.85 392.00,386.40"/>
    </edge>
    <edge id=":A0_16" function="internal">
        <lane id=":A0_16_0" index="0" speed="13.89" length="27.20" shape="386.40,392.00 413.60,392.00"/>
        <lane id=":A0_16_1" index="1" speed="13.89" length="27.20" shape="386.40,395.20 413.60,395.20"/>
        <lane id=":A0_16_2" index="2" speed="13.89" length="27.20" shape="386.40,398.40 413.60,398.40"/>
    </edge>
    <edge id=":A0_19" function="internal">
        <lane id=":A0_19_0" index="0" speed="10.36" length="5.01" shape="386.40,398.40 391.36,399.11"/>
    </edge>
    <edge id=":A0_23" function="internal">
        <lane id=":A0_23_0" index="0" speed="10.36" length="19.50" shape="391.36,399.11 393.05,399.35 397.80,402.20 400.65,406.95 401.60,413.60"/>
    </edge>
    <edge id=":A1_0" function="internal">
        <lane id=":A1_0_0" index="0" speed="6.51" length="9.03" shape="392.00,813.60 391.65,811.15 390.60,809.40 388.85,808.35 386.40,808.00"/>
    </edge>
    <edge id=":A1_1" function="internal">
        <lane id=":A1_1_0" index="0" speed="13.89" length="27.20" shape="392.00,813.60 392.00,786.40"/>
        <lane id=":A1_1_1" index="1" speed="13.89" length="27.20" shape="395.20,813.60 395.20,786.40"/>
        <lane id=":A1_1_2" index="2" speed="13.89" length="27.20" shape="398.40,813.60 398.40,786.40"/>
    </edge>
    <edge id=":A1_4" function="internal">
        <lane id=":A1_4_0" index="0" speed="10.36" length="5.01" shape="398.40,813.60 399.11,808.64"/>
    </edge>
    <edge id=":A1_20" function="internal">
        <lane id=":A1_20_0" index="0" speed="10.36" length="19.50" shape="399.11,808.64 399.35,806.95 402.20,802.20 406.95,799.35 413.60,798.40"/>
    </edge>
    <edge id=":A1_5" function="internal">
        <lane id=":A1_5_0" index="0" speed="6.51" length="9.03" shape="413.60,808.00 411.15,808.35 409.40,809.40 408.35,811.15 408.00,813.60"/>
    </edge>
    <edge id=":A1_6" function="internal">
        <lane id=":A1_6_0" index="0" speed="13.89" length="27.20" shape="413.60,808.00 386.40,808.00"/>
        <lane id=":A1_6_1" index="1" speed="13.89" length="27.20" shape="413.60,804.80 386.40,804.80"/>
        <lane id=":A1_6_2" index="2" speed="13.89" length="27.20" shape="413.60,801.60 386.40,801.60"/>
    </edge>
    <edge id=":A1_9" function="internal">
        <lane id=":A1_9_0" index="0" speed="10.36" length="5.01" shape="413.60,801.60 408.64,800.89"/>
    </edge>
    <edge id=":A1_21" function="internal">
        <lane id=":A1_21_0" index="0" speed="10.36" length="19.50" shape="408.64,800.89 406.95,800.65 402.20,797.80 399.35,793.05 398.40,786.40"/>
    </edge>
    <edge id=":A1_10" function="internal">
        <lane id=":A1_10_0" index="0" speed="6.51" length="9.03" shape="408.00,786.40 408.35,788.85 409.40,790.60 411.15,791.65 413.60,792.00"/>
    </edge>
    <edge id=":A1_11" function="internal">
        <lane id=":A1_11_0" index="0" speed="13.89" length="27.20" shape="408.00,786.40 408.00,813.60"/>
        <lane id=":A1_11_1" index="1" speed="13.89" length="27.20" shape="404.80,786.40 404.80,813.60"/>
        <lane id=":A1_11_2" index="2" speed="13.89" length="27.20" shape="401.60,786.40 401.60,813.60"/>
    </edge>
    <edge id=":A1_14" function="internal">
        <lane id=":A1_14_0" index="0" speed="10.36" length="5.01" shape="401.60,786.40 400.89,791.36"/>
    </edge>
    <edge id=":A1_22" function="internal">
        <lane id=":A1_22_0" index="0" speed="10.36" length="19.50" shape="400.89,791.36 400.65,793.05 397.80,797.80 393.05,800.65 386.40,801.60"/>
    </edge>
    <edge id=":A1_15" function="internal">
        <lane id=":A1_15_0" index="0" speed="6.51" length="9.03" shape="386.40,792.00 388.85,791.65 390.60,790.60 391.65,788.85 392.00,786.40"/>
    </edge>
    <edge id=":A1_16" function="internal">
        <lane id=":A1_16_0" index="0" speed="13.89" length="27.20" shape="386.40,792.00 413.60,792.00"/>
        <lane id=":A1_16_1" index="1" speed="13.89" length="27.20" shape="386.40,795.20 413.60,795.20"/>
        <lane id=":A1_16_2" index="2" speed="13.89" length="27.20" shape="386.40,798.40 413.60,798.40"/>
    </edge>
    <edge id=":A1_19" function="internal">
        <lane id=":A1_19_0" index="0" speed="10.36" length="5.01" shape="386.40,798.40 391.36,799.11"/>
    </edge>
    <edge id=":A1_23" function="internal">
        <lane id=":A1_23_0" index="0" speed="10.36" length="19.50" shape="391.36,799.11 393.05,799.35 397.80,802.20 400.65,806.95 401.60,813.60"/>
    </edge>
    <edge id=":A2_0" function="internal">
        <lane id=":A2_0_0" index="0" speed="6.51" length="9.03" shape="392.00,1213.60 391.65,1211.15 390.60,1209.40 388.85,1208.35 386.40,1208.00"/>
    </edge>
    <edge id=":A2_1" function="internal">
        <lane id=":A2_1_0" index="0" speed="13.89" length="27.20" shape="392.00,1213.60 392.00,1186.40"/>
        <lane id=":A2_1_1" index="1" speed="13.89" length="27.20" shape="395.20,1213.60 395.20,1186.40"/>
        <lane id=":A2_1_2" index="2" speed="13.89" length="27.20" shape="398.40,1213.60 398.40,1186.40"/>
    </edge>
    <edge id=":A2_4" function="internal">
        <lane id=":A2_4_0" index="0" speed="10.36" length="5.01" shape="398.40,1213.60 399.11,1208.64"/>
    </edge>
    <edge id=":A2_20" function="internal">
        <lane id=":A2_20_0" index="0" speed="10.36" length="19.50" shape="399.11,1208.64 399.35,1206.95 402.20,1202.20 406.95,1199.35 413.60,1198.40"/>
    </edge>
    <edge id=":A2_5" function="internal">
        <lane id=":A2_5_0" index="0" speed="6.51" length="9.03" shape="413.60,1208.00 411.15,1208.35 409.40,1209.40 408.35,1211.15 408.00,1213.60"/>
    </edge>
    <edge id=":A2_6" function="internal">
        <lane id=":A2_6_0" index="0" speed="13.89" length="27.20" shape="413.60,1208.00 386.40,1208.00"/>
        <lane id=":A2_6_1" index="1" speed="13.89" length="27.20" shape="413.60,1204.80 386.40,1204.80"/>
        <lane id=":A2_6_2" index="2" speed="13.89" length="27.20" shape="413.60,1201.60 386.40,1201.60"/>
    </edge>
    <edge id=":A2_9" function="internal">
        <lane id=":A2_9_0" index="0" speed="10.36" length="5.01" shape="413.60,1201.60 408.64,1200.89"/>
    </edge>
    <edge id=":A2_21" function="internal">
        <lane id=":A2_21_0" index="0" speed="10.36" length="19.50" shape="408.64,1200.89 406.95,1200.65 402.20,1197.80 399.35,1193.05 398.40,1186.40"/>
    </edge>
    <edge id=":A2_10" function="internal">
        <lane id=":A2_10_0" index="0" speed="6.51" length="9.03" shape="408.00,1186.40 408.35,1188.85 409.40,1190.60 411.15,1191.65 413.60,1192.00"/>
    </edge>
    <edge id=":A2_11" function="internal">
        <lane id=":A2_11_0" index="0" speed="13.89" length="27.20" shape="408.00,1186.40 408.00,1213.60"/>
        <lane id=":A2_11_1" index="1" speed="13.89" length="27.20" shape="404.80,1186.40 404.80,1213.60"/>
        <lane id=":A2_11_2" index="2" speed="13.89" length="27.20" shape="401.60,1186.40 401.60,1213.60"/>
    </edge>
    <edge id=":A2_14" function="internal">
        <lane id=":A2_14_0" index="0" speed="10.36" length="5.01" shape="401.60,1186.40 400.89,1191.36"/>
    </edge>
    <edge id=":A2_22" function="internal">
        <lane id=":A2_22_0" index="0" speed="10.36" length="19.50" shape="400.89,1191.36 400.65,1193.05 397.80,1197.80 393.05,1200.65 386.40,1201.60"/>
    </edge>
    <edge id=":A2_15" function="internal">
        <lane id=":A2_15_0" index="0" speed="6.51" length="9.03" shape="386.40,1192.00 388.85,1191.65 390.60,1190.60 391.65,1188.85 392.00,1186.40"/>
    </edge>
    <edge id=":A2_16" function="internal">
        <lane id=":A2_16_0" index="0" speed="13.89" length="27.20" shape="386.40,1192.00 413.60,1192.00"/>
        <lane id=":A2_16_1" index="1" speed="13.89" length="27.20" shape="386.40,1195.20 413.60,1195.20"/>
        <lane id=":A2_16_2" index="2" speed="13.89" length="27.20" shape="386.40,1198.40 413.60,1198.40"/>
    </edge>
    <edge id=":A2_19" function="internal">
        <lane id=":A2_19_0" index="0" speed="10.36" length="5.01" shape="386.40,1198.40 391.36,1199.11"/>
    </edge>
    <edge id=":A2_23" function="internal">
        <lane id=":A2_23_0" index="0" speed="10.36" length="19.50" shape="391.36,1199.11 393.05,1199.35 397.80,1202.20 400.65,1206.95 401.60,1213.60"/>
    </edge>
    <edge id=":A3_0" function="internal">
        <lane id=":A3_0_0" index="0" speed="6.51" length="9.03" shape="392.00,1613.60 391.65,1611.15 390.60,1609.40 388.85,1608.35 386.40,1608.00"/>
    </edge>
    <edge id=":A3_1" function="internal">
        <lane id=":A3_1_0" index="0" speed="13.89" length="27.20" shape="392.00,1613.60 392.00,1586.40"/>
        <lane id=":A3_1_1" index="1" speed="13.89" length="27.20" shape="395.20,1613.60 395.20,1586.40"/>
        <lane id=":A3_1_2" index="2" speed="13.89" length="27.20" shape="398.40,1613.60 398.40,1586.40"/>
    </edge>
    <edge id=":A3_4" function="internal">
        <lane id=":A3_4_0" index="0" speed="10.36" length="5.01" shape="398.40,1613.60 399.11,1608.64"/>
    </edge>
    <edge id=":A3_20" function="internal">
        <lane id=":A3_20_0" index="0" speed="10.36" length="19.50" shape="399.11,1608.64 399.35,1606.95 402.20,1602.20 406.95,1599.35 413.60,1598.40"/>
    </edge>
    <edge id=":A3_5" function="internal">
        <lane id=":A3_5_0" index="0" speed="6.51" length="9.03" shape="413.60,1608.00 411.15,1608.35 409.40,1609.40 408.35,1611.15 408.00,1613.60"/>
    </edge>
    <edge id=":A3_6" function="internal">
        <lane id=":A3_6_0" index="0" speed="13.89" length="27.20" shape="413.60,1608.00 386.40,1608.00"/>
        <lane id=":A3_6_1" index="1" speed="13.89" length="27.20" shape="413.60,1604.80 386.40,1604.80"/>
        <lane id=":A3_6_2" index="2" speed="13.89" length="27.20" shape="413.60,1601.60 386.40,1601.60"/>
    </edge>
    <edge id=":A3_9" function="internal">
        <lane id=":A3_9_0" index="0" speed="10.36" length="5.01" shape="413.60,1601.60 408.64,1600.89"/>
    </edge>
    <edge id=":A3_21" function="internal">
        <lane id=":A3_21_0" index="0" speed="10.36" length="19.50" shape="408.64,1600.89 406.95,1600.65 402.20,1597.80 399.35,1593.05 398.40,1586.40"/>
    </edge>
    <edge id=":A3_10" function="internal">
        <lane id=":A3_10_0" index="0" speed="6.51" length="9.03" shape="408.00,1586.40 408.35,1588.85 409.40,1590.60 411.15,1591.65 413.60,1592.00"/>
    </edge>
    <edge id=":A3_11" function="internal">
        <lane id=":A3_11_0" index="0" speed="13.89" length="27.20" shape="408.00,1586.40 408.00,1613.60"/>
        <lane id=":A3_11_1" index="1" speed="13.89" length="27.20" shape="404.80,1586.40 404.80,1613.60"/>
        <lane id=":A3_11_2" index="2" speed="13.89" length="27.20" shape="401.60,1586.40 401.60,1613.60"/>
    </edge>
    <edge id=":A3_14" function="internal">
        <lane id=":A3_14_0" index="0" speed="10.36" length="5.01" shape="401.60,1586.40 400.89,1591.36"/>
    </edge>
    <edge id=":A3_22" function="internal">
        <lane id=":A3_22_0" index="0" speed="10.36" length="19.50" shape="400.89,1591.36 400.65,1593.05 397.80,1597.80 393.05,1600.65 386.40,1601.60"/>
    </edge>
    <edge id=":A3_15" function="internal">
        <lane id=":A3_15_0" index="0" speed="6.51" length="9.03" shape="386.40,1592.00 388.85,1591.65 390.60,1590.60 391.65,1588.85 392.00,1586.40"/>
    </edge>
    <edge id=":A3_16" function="internal">
        <lane id=":A3_16_0" index="0" speed="13.89" length="27.20" shape="386.40,1592.00 413.60,1592.00"/>
        <lane id=":A3_16_1" index="1" speed="13.89" length="27.20" shape="386.40,1595.20 413.60,1595.20"/>
        <lane id=":A3_16_2" index="2" speed="13.89" length="27.20" shape="386.40,1598.40 413.60,1598.40"/>
    </edge>
    <edge id=":A3_19" function="internal">
        <lane id=":A3_19_0" index="0" speed="10.36" length="5.01" shape="386.40,1598.40 391.36,1599.11"/>
    </edge>
    <edge id=":A3_23" function="internal">
        <lane id=":A3_23_0" index="0" speed="10.36" length="19.50" shape="391.36,1599.11 393.05,1599.35 397.80,1602.20 400.65,1606.95 401.60,1613.60"/>
    </edge>
    <edge id=":B0_0" function="internal">
        <lane id=":B0_0_0" index="0" speed="6.51" length="9.03" shape="792.00,413.60 791.65,411.15 790.60,409.40 788.85,408.35 786.40,408.00"/>
    </edge>
    <edge id=":B0_1" function="internal">
        <lane id=":B0_1_0" index="0" speed="13.89" length="27.20" shape="792.00,413.60 792.00,386.40"/>
        <lane id=":B0_1_1" index="1" speed="13.89" length="27.20" shape="795.20,413.60 795.20,386.40"/>
        <lane id=":B0_1_2" index="2" speed="13.89" length="27.20" shape="798.40,413.60 798.40,386.40"/>
    </edge>
    <edge id=":B0_4" function="internal">
        <lane id=":B0_4_0" index="0" speed="10.36" length="5.01" shape="798.40,413.60 799.11,408.64"/>
    </edge>
    <edge id=":B0_20" function="internal">
        <lane id=":B0_20_0" index="0" speed="10.36" length="19.50" shape="799.11,408.64 799.35,406.95 802.20,402.20 806.95,399.35 813.60,398.40"/>
    </edge>
    <edge id=":B0_5" function="internal">
        <lane id=":B0_5_0" index="0" speed="6.51" length="9.03" shape="813.60,408.00 811.15,408.35 809.40,409.40 808.35,411.15 808.00,413.60"/>
    </edge>
    <edge id=":B0_6" function="internal">
        <lane id=":B0_6_0" index="0" speed="13.89" length="27.20" shape="813.60,408.00 786.40,408.00"/>
        <lane id=":B0_6_1" index="1" speed="13.89" length="27.20" shape="813.60,404.80 786.40,404.80"/>
        <lane id=":B0_6_2" index="2" speed="13.89" length="27.20" shape="813.60,401.60 786.40,401.60"/>
    </edge>
    <edge id=":B0_9" function="internal">
        <lane id=":B0_9_0" index="0" speed="10.36" length="5.01" shape="813.60,401.60 808.64,400.89"/>
    </edge>
    <edge id=":B0_21" function="internal">
        <lane id=":B0_21_0" index="0" speed="10.36" length="19.50" shape="808.64,400.89 806.95,400.65 802.20,397.80 799.35,393.05 798.40,386.40"/>
    </edge>
    <edge id=":B0_10" function="internal">
        <lane id=":B0_10_0" index="0" speed="6.51" length="9.03" shape="808.00,386.40 808.35,388.85 809.40,390.60 811.15,391.65 813.60,392.00"/>
    </edge>
    <edge id=":B0_11" function="internal">
        <lane id=":B0_11_0" index="0" speed="13.89" length="27.20" shape="808.00,386.40 808.00,413.60"/>
        <lane id=":B0_11_1" index="1" speed="13.89" length="27.20" shape="804.80,386.40 804.80,413.60"/>
        <lane id=":B0_11_2" index="2" speed="13.89" length="27.20" shape="801.60,386.40 801.60,413.60"/>
    </edge>
    <edge id=":B0_14" function="internal">
        <lane id=":B0_14_0" index="0" speed="10.36" length="5.01" shape="801.60,386.40 800.89,391.36"/>
    </edge>
    <edge id=":B0_22" function="internal">
        <lane id=":B0_22_0" index="0" speed="10.36" length="19.50" shape="800.89,391.36 800.65,393.05 797.80,397.80 793.05,400.65 786.40,401.60"/>
    </edge>
    <edge id=":B0_15" function="internal">
        <lane id=":B0_15_0" index="0" speed="6.51" length="9.03" shape="786.40,392.00 788.85,391.65 790.60,390.60 791.65,388.85 792.00,386.40"/>
    </edge>
    <edge id=":B0_16" function="internal">
        <lane id=":B0_16_0" index="0" speed="13.89" length="27.20" shape="786.40,392.00 813.60,392.00"/>
        <lane id=":B0_16_1" index="1" speed="13.89" length="27.20" shape="786.40,395.20 813.60,395.20"/>
        <lane id=":B0_16_2" index="2" speed="13.89" length="27.20" shape="786.40,398.40 813.60,398.40"/>
    </edge>
    <edge id=":B0_19" function="internal">
        <lane id=":B0_19_0" index="0" speed="10.36" length="5.01" shape="786.40,398.40 791.36,399.11"/>
    </edge>
    <edge id=":B0_23" function="internal">
        <lane id=":B0_23_0" index="0" speed="10.36" length="19.50" shape="791.36,399.11 793.05,399.35 797.80,402.20 800.65,406.95 801.60,413.60"/>
    </edge>
    <edge id=":B1_0" function="internal">
        <lane id=":B1_0_0" index="0" speed="6.51" length="9.03" shape="792.00,813.60 791.65,811.15 790.60,809.40 788.85,808.35 786.40,808.00"/>
    </edge>
    <edge id=":B1_1" function="internal">
        <lane id=":B1_1_0" index="0" speed="13.89" length="27.20" shape="792.00,813.60 792.00,786.40"/>
        <lane id=":B1_1_1" index="1" speed="13.89" length="27.20" shape="795.20,813.60 795.20,786.40"/>
        <lane id=":B1_1_2" index="2" speed="13.89" length="27.20" shape="798.40,813.60 798.40,786.40"/>
    </edge>
    <edge id=":B1_4" function="internal">
        <lane id=":B1_4_0" index="0" speed="10.36" length="5.01" shape="798.40,813.60 799.11,808.64"/>
    </edge>
    <edge id=":B1_20" function="internal">
        <lane id=":B1_20_0" index="0" speed="10.36" length="19.50" shape="799.11,808.64 799.35,806.95 802.20,802.20 806.95,799.35 813.60,798.40"/>
    </edge>
    <edge id=":B1_5" function="internal">
        <lane id=":B1_5_0" index="0" speed="6.51" length="9.03" shape="813.60,808.00 811.15,808.35 809.40,809.40 808.35,811.15 808.00,813.60"/>
    </edge>
    <edge id=":B1_6" function="internal">
        <lane id=":B1_6_0" index="0" speed="13.89" length="27.20" shape="813.60,808.00 786.40,808.00"/>
        <lane id=":B1_6_1" index="1" speed="13.89" length="27.20" shape="813.60,804.80 786.40,804.80"/>
        <lane id=":B1_6_2" index="2" speed="13.89" length="27.20" shape="813.60,801.60 786.40,801.60"/>
    </edge>
    <edge id=":B1_9" function="internal">
        <lane id=":B1_9_0" index="0" speed="10.36" length="5.01" shape="813.60,801.60 808.64,800.89"/>
    </edge>
    <edge id=":B1_21" function="internal">
        <lane id=":B1_21_0" index="0" speed="10.36" length="19.50" shape="808.64,800.89 806.95,800.65 802.20,797.80 799.35,793.05 798.40,786.40"/>
    </edge>
    <edge id=":B1_10" function="internal">
        <lane id=":B1_10_0" index="0" speed="6.51" length="9.03" shape="808.00,786.40 808.35,788.85 809.40,790.60 811.15,791.65 813.60,792.00"/>
    </edge>
    <edge id=":B1_11" function="internal">
        <lane id=":B1_11_0" index="0" speed="13.89" length="27.20" shape="808.00,786.40 808.00,813.60"/>
        <lane id=":B1_11_1" index="1" speed="13.89" length="27.20" shape="804.80,786.40 804.80,813.60"/>
        <lane id=":B1_11_2" index="2" speed="13.89" length="27.20" shape="801.60,786.40 801.60,813.60"/>
    </edge>
    <edge id=":B1_14" function="internal">
        <lane id=":B1_14_0" index="0" speed="10.36" length="5.01" shape="801.60,786.40 800.89,791.36"/>
    </edge>
    <edge id=":B1_22" function="internal">
        <lane id=":B1_22_0" index="0" speed="10.36" length="19.50" shape="800.89,791.36 800.65,793.05 797.80,797.80 793.05,800.65 786.40,801.60"/>
    </edge>
    <edge id=":B1_15" function="internal">
        <lane id=":B1_15_0" index="0" speed="6.51" length="9.03" shape="786.40,792.00 788.85,791.65 790.60,790.60 791.65,788.85 792.00,786.40"/>
    </edge>
    <edge id=":B1_16" function="internal">
        <lane id=":B1_16_0" index="0" speed="13.89" length="27.20" shape="786.40,792.00 813.60,792.00"/>
        <lane id=":B1_16_1" index="1" speed="13.89" length="27.20" shape="786.40,795.20 813.60,795.20"/>
        <lane id=":B1_16_2" index="2" speed="13.89" length="27.20" shape="786.40,798.40 813.60,798.40"/>
    </edge>
    <edge id=":B1_19" function="internal">
        <lane id=":B1_19_0" index="0" speed="10.36" length="5.01" shape="786.40,798.40 791.36,799.11"/>
    </edge>
    <edge id=":B1_23" function="internal">
        <lane id=":B1_23_0" index="0" speed="10.36" length="19.50" shape="791.36,799.11 793.05,799.35 797.80,802.20 800.65,806.95 801.60,813.60"/>
    </edge>
    <edge id=":B2_0" function="internal">
        <lane id=":B2_0_0" index="0" speed="6.51" length="9.03" shape="792.00,1213.60 791.65,1211.15 790.60,1209.40 788.85,1208.35 786.40,1208.00"/>
    </edge>
    <edge id=":B2_1" function="internal">
        <lane id=":B2_1_0" index="0" speed="13.89" length="27.20" shape="792.00,1213.60 792.00,1186.40"/>
        <lane id=":B2_1_1" index="1" speed="13.89" length="27.20" shape="795.20,1213.60 795.20,1186.40"/>
        <lane id=":B2_1_2" index="2" speed="13.89" length="27.20" shape="798.40,1213.60 798.40,1186.40"/>
    </edge>
    <edge id=":B2_4" function="internal">
        <lane id=":B2_4_0" index="0" speed="10.36" length="5.01" shape="798.40,1213.60 799.11,1208.64"/>
    </edge>
    <edge id=":B2_20" function="internal">
        <lane id=":B2_20_0" index="0" speed="10.36" length="19.50" shape="799.11,1208.64 799.35,1206.95 802.20,1202.20 806.95,1199.35 813.60,1198.40"/>
    </edge>
    <edge id=":B2_5" function="internal">
        <lane id=":B2_5_0" index="0" speed="6.51" length="9.03" shape="813.60,1208.00 811.15,1208.35 809.40,1209.40 808.35,1211.15 808.00,1213.60"/>
    </edge>
    <edge id=":B2_6" function="internal">
        <lane id=":B2_6_0" index="0" speed="13.89" length="27.20" shape="813.60,1208.00 786.40,1208.00"/>
        <lane id=":B2_6_1" index="1" speed="13.89" length="27.20" shape="813.60,1204.80 786.40,1204.80"/>
        <lane id=":B2_6_2" index="2" speed="13.89" length="27.20" shape="813.60,1201.60 786.40,1201.60"/>
    </edge>
    <edge id=":B2_9" function="internal">
        <lane id=":B2_9_0" index="0" speed="10.36" length="5.01" shape="813.60,1201.60 808.64,1200.89"/>
    </edge>
    <edge id=":B2_21" function="internal">
        <lane id=":B2_21_0" index="0" speed="10.36" length="19.50" shape="808.64,1200.89 806.95,1200.65 802.20,1197.80 799.35,1193.05 798.40,1186.40"/>
    </edge>
    <edge id=":B2_10" function="internal">
        <lane id=":B2_10_0" index="0" speed="6.51" length="9.03" shape="808.00,1186.40 808.35,1188.85 809.40,1190.60 811.15,1191.65 813.60,1192.00"/>
    </edge>
    <edge id=":B2_11" function="internal">
        <lane id=":B2_11_0" index="0" speed="13.89" length="27.20" shape="808.00,1186.40 808.00,1213.60"/>
        <lane id=":B2_11_1" index="1" speed="13.89" length="27.20" shape="804.80,1186.40 804.80,1213.60"/>
        <lane id=":B2_11_2" index="2" speed="13.89" length="27.20" shape="801.60,1186.40 801.60,1213.60"/>
    </edge>
    <edge id=":B2_14" function="internal">
        <lane id=":B2_14_0" index="0" speed="10.36" length="5.01" shape="801.60,1186.40 800.89,1191.36"/>
    </edge>
    <edge id=":B2_22" function="internal">
        <lane id=":B2_22_0" index="0" speed="10.36" length="19.50" shape="800.89,1191.36 800.65,1193.05 797.80,1197.80 793.05,1200.65 786.40,1201.60"/>
    </edge>
    <edge id=":B2_15" function="internal">
        <lane id=":B2_15_0" index="0" speed="6.51" length="9.03" shape="786.40,1192.00 788.85,1191.65 790.60,1190.60 791.65,1188.85 792.00,1186.40"/>
    </edge>
    <edge id=":B2_16" function="internal">
        <lane id=":B2_16_0" index="0" speed="13.89" length="27.20" shape="786.40,1192.00 813.60,1192.00"/>
        <lane id=":B2_16_1" index="1" speed="13.89" length="27.20" shape="786.40,1195.20 813.60,1195.20"/>
        <lane id=":B2_16_2" index="2" speed="13.89" length="27.20" shape="786.40,1198.40 813.60,1198.40"/>
    </edge>
    <edge id=":B2_19" function="internal">
        <lane id=":B2_19_0" index="0" speed="10.36" length="5.01" shape="786.40,1198.40 791.36,1199.11"/>
    </edge>
    <edge id=":B2_23" function="internal">
        <lane id=":B2_23_0" index="0" speed="10.36" length="19.50" shape="791.36,1199.11 793.05,1199.35 797.80,1202.20 800.65,1206.95 801.60,1213.60"/>
    </edge>
    <edge id=":B3_0" function="internal">
        <lane id=":B3_0_0" index="0" speed="6.51" length="9.03" shape="792.00,1613.60 791.65,1611.15 790.60,1609.40 788.85,1608.35 786.40,1608.00"/>
    </edge>
    <edge id=":B3_1" function="internal">
        <lane id=":B3_1_0" index="0" speed="13.89" length="27.20" shape="792.00,1613.60 792.00,1586.40"/>
        <lane id=":B3_1_1" index="1" speed="13.89" length="27.20" shape="795.20,1613.60 795.20,1586.40"/>
        <lane id=":B3_1_2" index="2" speed="13.89" length="27.20" shape="798.40,1613.60 798.40,1586.40"/>
    </edge>
    <edge id=":B3_4" function="internal">
        <lane id=":B3_4_0" index="0" speed="10.36" length="5.01" shape="798.40,1613.60 799.11,1608.64"/>
    </edge>
    <edge id=":B3_20" function="internal">
        <lane id=":B3_20_0" index="0" speed="10.36" length="19.50" shape="799.11,1608.64 799.35,1606.95 802.20,1602.20 806.95,1599.35 813.60,1598.40"/>
    </edge>
    <edge id=":B3_5" function="internal">
        <lane id=":B3_5_0" index="0" speed="6.51" length="9.03" shape="813.60,1608.00 811.15,1608.35 809.40,1609.40 808.35,1611.15 808.00,1613.60"/>
    </edge>
    <edge id=":B3_6" function="internal">
        <lane id=":B3_6_0" index="0" speed="13.89" length="27.20" shape="813.60,1608.00 786.40,1608.00"/>
        <lane id=":B3_6_1" index="1" speed="13.89" length="27.20" shape="813.60,1604.80 786.40,1604.80"/>
        <lane id=":B3_6_2" index="2" speed="13.89" length="27.20" shape="813.60,1601.60 786.40,1601.60"/>
    </edge>
    <edge id=":B3_9" function="internal">
        <lane id=":B3_9_0" index="0" speed="10.36" length="5.01" shape="813.60,1601.60 808.64,1600.89"/>
    </edge>
    <edge id=":B3_21" function="internal">
        <lane id=":B3_21_0" index="0" speed="10.36" length="19.50" shape="808.64,1600.89 806.95,1600.65 802.20,1597.80 799.35,1593.05 798.40,1586.40"/>
    </edge>
    <edge id=":B3_10" function="internal">
        <lane id=":B3_10_0" index="0" speed="6.51" length="9.03" shape="808.00,1586.40 808.35,1588.85 809.40,1590.60 811.15,1591.65 813.60,1592.00"/>
    </edge>
    <edge id=":B3_11" function="internal">
        <lane id=":B3_11_0" index="0" speed="13.89" length="27.20" shape="808.00,1586.40 808.00,1613.60"/>
        <lane id=":B3_11_1" index="1" speed="13.89" length="27.20" shape="804.80,1586.40 804.80,1613.60"/>
        <lane id=":B3_11_2" index="2" speed="13.89" length="27.20" shape="801.60,1586.40 801.60,1613.60"/>
    </edge>
    <edge id=":B3_14" function="internal">
        <lane id=":B3_14_0" index="0" speed="10.36" length="5.01" shape="801.60,1586.40 800.89,1591.36"/>
    </edge>
    <edge id=":B3_22" function="internal">