<?xml version="1.0" encoding="UTF-8"?>

<!-- generated on 2022-02-02 15:34:47 by Eclipse SUMO netgenerate Version 1.12.0
<configuration xmlns:xsi="http://www.w3.org/2001/XMLSchema-instance" xsi:noNamespaceSchemaLocation="http://sumo.dlr.de/xsd/netgenerateConfiguration.xsd">

    <random_network>
        <rand value="true"/>
        <rand.iterations value="20"/>
        <rand.random-lanenumber value="true"/>
    </random_network>

    <output>
        <output-file value="rand.net.xml"/>
    </output>

    <building_defaults>
        <default.lanenumber value="2"/>
        <default-junction-type value="traffic_light"/>
    </building_defaults>

    <junctions>
        <no-turnarounds value="true"/>
    </junctions>

</configuration>
-->

<net version="1.9" junctionCornerDetail="5" limitTurnSpeed="5.50" xmlns:xsi="http://www.w3.org/2001/XMLSchema-instance" xsi:noNamespaceSchemaLocation="http://sumo.dlr.de/xsd/net_file.xsd">

    <location netOffset="230.76,565.34" convBoundary="0.00,0.00,751.66,878.95" origBoundary="-230.76,-565.34,520.90,313.61" projParameter="!"/>

    <edge id=":1_0" function="internal">
        <lane id=":1_0_0" index="0" speed="6.31" length="10.26" shape="226.13,576.16 225.71,572.92 224.58,570.86 222.72,569.99 220.15,570.31"/>
    </edge>
    <edge id=":1_1" function="internal">
        <lane id=":1_1_0" index="0" speed="13.89" length="20.43" shape="226.13,576.16 226.34,569.45 226.86,564.05 227.19,559.62 226.83,555.79"/>
    </edge>
    <edge id=":1_2" function="internal">
        <lane id=":1_2_0" index="0" speed="9.17" length="4.74" shape="229.33,576.11 229.93,571.41"/>
    </edge>
    <edge id=":1_13" function="internal">
        <lane id=":1_13_0" index="0" speed="9.17" length="15.03" shape="229.93,571.41 230.02,570.70 232.29,566.90 236.14,564.72 241.57,564.15"/>
    </edge>
    <edge id=":1_3" function="internal">
        <lane id=":1_3_0" index="0" speed="6.39" length="9.04" shape="241.33,570.54 238.85,570.80 237.09,571.80 236.05,573.54 235.73,576.01"/>
    </edge>
    <edge id=":1_4" function="internal">
        <lane id=":1_4_0" index="0" speed="13.89" length="21.25" shape="241.33,570.54 234.47,570.14 228.78,569.73 224.07,569.66 220.15,570.31"/>
    </edge>
    <edge id=":1_5" function="internal">
        <lane id=":1_5_0" index="0" speed="10.57" length="6.49" shape="241.45,567.34 236.05,566.45 235.14,565.98"/>
    </edge>
    <edge id=":1_14" function="internal">
        <lane id=":1_14_0" index="0" speed="10.57" length="13.71" shape="235.14,565.98 231.81,564.23 228.74,560.67 226.83,555.79"/>
    </edge>
    <edge id=":1_6" function="internal">
        <lane id=":1_6_0" index="0" speed="8.88" length="14.01" shape="233.05,554.29 234.45,558.52 236.33,561.57 238.71,563.44 241.57,564.15"/>
    </edge>
    <edge id=":1_7" function="internal">
        <lane id=":1_7_0" index="0" speed="13.89" length="21.60" shape="233.05,554.29 234.43,560.38 235.21,565.05 235.57,569.77 235.73,576.01"/>
        <lane id=":1_7_1" index="1" speed="13.89" length="21.60" shape="229.94,555.04 231.31,561.02 232.05,565.45 232.39,569.93 232.53,576.06"/>
    </edge>
    <edge id=":1_9" function="internal">
        <lane id=":1_9_0" index="0" speed="9.72" length="7.70" shape="229.94,555.04 230.35,560.26 229.54,562.58"/>
    </edge>
    <edge id=":1_15" function="internal">
        <lane id=":1_15_0" index="0" speed="9.72" length="12.68" shape="229.54,562.58 228.86,564.55 225.46,567.90 220.15,570.31"/>
    </edge>
    <edge id=":1_10" function="internal">
        <lane id=":1_10_0" index="0" speed="7.92" length="13.20" shape="218.25,564.19 222.49,562.52 225.32,560.56 226.77,558.32 226.83,555.79"/>
    </edge>
    <edge id=":1_11" function="internal">
        <lane id=":1_11_0" index="0" speed="13.89" length="23.50" shape="218.25,564.19 225.22,562.91 231.62,562.99 237.16,563.66 241.57,564.15"/>
    </edge>
    <edge id=":1_12" function="internal">
        <lane id=":1_12_0" index="0" speed="8.51" length="9.11" shape="219.20,567.25 224.96,566.27 228.12,567.14"/>
    </edge>
    <edge id=":1_16" function="internal">
        <lane id=":1_16_0" index="0" speed="8.51" length="10.61" shape="228.12,567.14 229.10,567.42 231.62,570.68 232.53,576.06"/>
    </edge>
    <edge id=":115_0" function="internal">
        <lane id=":115_0_0" index="0" speed="7.71" length="16.82" shape="396.53,243.15 401.12,244.87 403.47,247.48 403.58,250.99 401.46,255.40"/>
        <lane id=":115_0_1" index="1" speed="6.12" length="10.09" shape="395.84,246.28 398.59,247.30 400.00,248.87 400.07,250.98 398.79,253.63"/>
    </edge>
    <edge id=":115_2" function="internal">
        <lane id=":115_2_0" index="0" speed="3.93" length="3.36" shape="396.13,251.85 396.56,250.97 396.53,250.26 396.06,249.74 395.15,249.40"/>
    </edge>
    <edge id=":12_0" function="internal">
        <lane id=":12_0_0" index="0" speed="13.89" length="27.85" shape="313.48,402.53 309.81,399.16 303.94,395.37 296.89,391.64 289.67,388.44"/>
    </edge>
    <edge id=":12_1" function="internal">
        <lane id=":12_1_0" index="0" speed="13.89" length="29.85" shape="313.48,402.53 310.06,398.35 305.17,392.35 300.16,385.36 296.40,378.18"/>
    </edge>
    <edge id=":12_2" function="internal">
        <lane id=":12_2_0" index="0" speed="13.46" length="5.61" shape="313.48,402.53 310.87,397.56"/>
    </edge>
    <edge id=":12_3" function="internal">
        <lane id=":12_3_0" index="0" speed="9.05" length="3.63" shape="313.48,402.53 312.03,399.20"/>
    </edge>
    <edge id=":12_23" function="internal">
        <lane id=":12_23_0" index="0" speed="13.46" length="25.45" shape="310.87,397.56 310.03,395.96 309.11,388.94 310.73,381.48 314.88,373.58"/>
    </edge>
    <edge id=":12_24" function="internal">
        <lane id=":12_24_0" index="0" speed="9.05" length="21.77" shape="312.03,399.20 310.78,396.34 312.12,391.29 316.76,387.60 323.96,385.52"/>
    </edge>
    <edge id=":12_4" function="internal">
        <lane id=":12_4_0" index="0" speed="6.40" length="11.97" shape="324.89,391.85 320.65,392.85 318.20,394.32 317.52,396.28 318.62,398.72"/>
    </edge>
    <edge id=":12_5" function="internal">
        <lane id=":12_5_0" index="0" speed="13.89" length="34.85" shape="324.89,391.85 316.52,392.45 307.05,392.08 297.70,390.74 289.67,388.44"/>
        <lane id=":12_5_1" index="1" speed="13.89" length="34.85" shape="324.43,388.69 316.31,389.32 307.41,389.01 298.62,387.74 290.85,385.47"/>
    </edge>
    <edge id=":12_7" function="internal">
        <lane id=":12_7_0" index="0" speed="12.52" length="12.01" shape="324.43,388.69 315.56,389.03 312.52,388.25"/>
    </edge>
    <edge id=":12_8" function="internal">
        <lane id=":12_8_0" index="0" speed="8.22" length="5.01" shape="324.43,388.69 319.44,388.23"/>
    </edge>
    <edge id=":12_25" function="internal">
        <lane id=":12_25_0" index="0" speed="12.52" length="18.11" shape="312.52,388.25 308.43,387.20 303.04,383.20 299.38,377.03"/>
    </edge>
    <edge id=":12_26" function="internal">
        <lane id=":12_26_0" index="0" speed="8.22" length="18.45" shape="319.44,388.23 318.02,388.10 313.90,384.77 312.66,379.63 314.88,373.58"/>
    </edge>
    <edge id=":12_9" function="internal">
        <lane id=":12_9_0" index="0" speed="5.50" length="9.60" shape="320.20,377.14 318.82,379.83 318.92,381.60 320.47,382.44 323.50,382.35"/>
    </edge>
    <edge id=":12_10" function="internal">
        <lane id=":12_10_0" index="0" speed="11.68" length="23.16" shape="320.20,377.14 316.98,383.17 315.64,388.78 316.18,393.96 318.62,398.72"/>
        <lane id=":12_10_1" index="1" speed="12.60" length="27.11" shape="317.54,375.36 313.85,382.33 312.37,388.86 313.11,394.96 316.05,400.62"/>
    </edge>
    <edge id=":12_12" function="internal">
        <lane id=":12_12_0" index="0" speed="12.67" length="31.22" shape="317.54,375.36 311.77,382.13 305.40,386.08 298.43,387.19 290.85,385.47"/>
    </edge>
    <edge id=":12_13" function="internal">
        <lane id=":12_13_0" index="0" speed="8.47" length="23.55" shape="317.54,375.36 312.84,380.50 307.72,382.90 302.96,381.94 299.38,377.03"/>
    </edge>
    <edge id=":12_14" function="internal">
        <lane id=":12_14_0" index="0" speed="6.55" length="13.48" shape="305.36,374.74 307.15,377.78 309.34,378.61 311.91,377.21 314.88,373.58"/>
    </edge>
    <edge id=":12_15" function="internal">
        <lane id=":12_15_0" index="0" speed="10.61" length="21.40" shape="305.36,374.74 307.89,378.86 311.76,381.51 316.97,382.67 323.50,382.35"/>
    </edge>
    <edge id=":12_16" function="internal">
        <lane id=":12_16_0" index="0" speed="13.89" length="27.93" shape="305.36,374.74 308.11,381.29 311.10,387.22 314.54,392.90 318.62,398.72"/>
        <lane id=":12_16_1" index="1" speed="13.89" length="27.93" shape="302.37,375.88 305.18,382.56 308.32,388.74 311.90,394.68 316.05,400.62"/>
    </edge>
    <edge id=":12_18" function="internal">
        <lane id=":12_18_0" index="0" speed="8.19" length="9.68" shape="302.37,375.88 304.06,382.76 303.20,385.22"/>
    </edge>
    <edge id=":12_27" function="internal">
        <lane id=":12_27_0" index="0" speed="8.19" length="13.74" shape="303.20,385.22 302.70,386.64 298.30,387.55 290.85,385.47"/>
    </edge>
    <edge id=":12_19" function="internal">
        <lane id=":12_19_0" index="0" speed="5.49" length="9.62" shape="292.03,382.50 294.97,383.29 296.68,382.83 297.15,381.13 296.40,378.18"/>
    </edge>
    <edge id=":12_20" function="internal">
        <lane id=":12_20_0" index="0" speed="11.77" length="26.82" shape="292.03,382.50 298.47,383.93 304.42,382.92 309.89,379.47 314.88,373.58"/>
    </edge>
    <edge id=":12_21" function="internal">
        <lane id=":12_21_0" index="0" speed="13.89" length="32.25" shape="292.03,382.50 297.59,383.95 306.03,385.25 315.45,385.92 323.96,385.52"/>
    </edge>
    <edge id=":12_22" function="internal">
        <lane id=":12_22_0" index="0" speed="13.89" length="30.32" shape="292.03,382.50 296.91,384.98 303.55,389.24 310.43,394.67 316.05,400.62"/>
    </edge>
    <edge id=":124_0" function="internal">
        <lane id=":124_0_0" index="0" speed="6.08" length="8.99" shape="750.11,632.37 751.58,634.45 751.90,636.38 751.08,638.15 749.12,639.77"/>
    </edge>
    <edge id=":124_1" function="internal">
        <lane id=":124_1_0" index="0" speed="3.91" length="3.00" shape="747.45,637.03 748.11,636.49 748.38,635.90 748.27,635.26 747.79,634.57"/>
    </edge>
    <edge id=":14_0" function="internal">
        <lane id=":14_0_0" index="0" speed="7.93" length="13.06" shape="120.66,216.76 118.55,212.82 116.29,210.27 113.91,209.09 111.39,209.30"/>
    </edge>
    <edge id=":14_1" function="internal">
        <lane id=":14_1_0" index="0" speed="8.81" length="24.09" shape="120.66,216.76 118.65,209.85 119.71,205.12 123.83,202.58 131.02,202.23"/>
    </edge>
    <edge id=":14_2" function="internal">
        <lane id=":14_2_0" index="0" speed="5.69" length="9.22" shape="130.48,208.61 127.73,208.74 126.15,209.71 125.75,211.52 126.52,214.17"/>
    </edge>
    <edge id=":14_3" function="internal">
        <lane id=":14_3_0" index="0" speed="13.89" length="20.05" shape="130.48,208.61 124.75,207.93 120.75,207.47 116.84,207.75 111.39,209.30"/>
        <lane id=":14_3_1" index="1" speed="13.89" length="20.05" shape="130.75,205.42 124.69,204.73 120.35,204.30 116.11,204.64 110.34,206.28"/>
    </edge>
    <edge id=":14_5" function="internal">
        <lane id=":14_5_0" index="0" speed="13.89" length="21.85" shape="109.28,203.26 113.97,202.35 120.05,201.97 126.19,201.98 131.02,202.23"/>
    </edge>
    <edge id=":14_6" function="internal">
        <lane id=":14_6_0" index="0" speed="9.82" length="3.39" shape="109.28,203.26 112.66,203.04"/>
    </edge>
    <edge id=":14_7" function="internal">
        <lane id=":14_7_0" index="0" speed="9.82" length="17.16" shape="112.66,203.04 113.07,203.02 116.71,204.97 120.22,209.12 123.59,215.46"/>
    </edge>
    <edge id=":18_0" function="internal">
        <lane id=":18_0_0" index="0" speed="10.05" length="16.41" shape="628.66,508.52 625.54,506.07 621.96,504.85 617.94,504.88 613.47,506.15"/>
    </edge>
    <edge id=":18_1" function="internal">
        <lane id=":18_1_0" index="0" speed="13.89" length="22.39" shape="628.66,508.52 625.17,505.08 620.55,500.81 615.84,496.64 612.09,493.47"/>
    </edge>
    <edge id=":18_2" function="internal">
        <lane id=":18_2_0" index="0" speed="11.54" length="4.55" shape="628.66,508.52 625.96,504.86"/>
    </edge>
    <edge id=":18_13" function="internal">
        <lane id=":18_13_0" index="0" speed="11.54" length="14.66" shape="625.96,504.86 625.72,504.54 624.11,500.24 623.83,495.62 624.88,490.68"/>
    </edge>
    <edge id=":18_3" function="internal">
        <lane id=":18_3_0" index="0" speed="9.97" length="14.16" shape="630.95,492.73 629.69,497.32 629.27,501.12 629.71,504.12 630.99,506.32"/>
    </edge>
    <edge id=":18_4" function="internal">
        <lane id=":18_4_0" index="0" speed="13.89" length="22.60" shape="630.95,492.73 628.92,496.34 625.33,499.78 620.18,503.05 613.47,506.15"/>
    </edge>
    <edge id=":18_5" function="internal">
        <lane id=":18_5_0" index="0" speed="8.39" length="5.46" shape="627.91,491.71 625.48,496.12 625.10,496.31"/>
    </edge>
    <edge id=":18_14" function="internal">
        <lane id=":18_14_0" index="0" speed="8.39" length="14.51" shape="625.10,496.31 622.03,497.88 617.57,497.00 612.09,493.47"/>
    </edge>
    <edge id=":18_6" function="internal">
        <lane id=":18_6_0" index="0" speed="6.09" length="9.91" shape="614.11,490.99 616.74,492.65 618.91,492.98 620.61,491.98 621.85,489.66"/>
    </edge>
    <edge id=":18_7" function="internal">
        <lane id=":18_7_0" index="0" speed="13.89" length="22.81" shape="614.11,490.99 617.90,494.20 622.72,498.47 627.45,502.83 630.99,506.32"/>
    </edge>
    <edge id=":18_8" function="internal">
        <lane id=":18_8_0" index="0" speed="8.15" length="6.54" shape="614.11,490.99 618.67,495.67"/>
    </edge>
    <edge id=":18_15" function="internal">
        <lane id=":18_15_0" index="0" speed="8.15" length="13.90" shape="618.67,495.67 620.09,499.76 618.36,503.25 613.47,506.15"/>
    </edge>
    <edge id=":18_9" function="internal">
        <lane id=":18_9_0" index="0" speed="5.69" length="9.22" shape="611.08,500.22 613.48,498.85 614.45,497.28 613.99,495.48 612.09,493.47"/>
    </edge>
    <edge id=":18_10" function="internal">
        <lane id=":18_10_0" index="0" speed="12.12" length="15.56" shape="611.08,500.22 614.88,498.30 617.95,495.90 620.27,493.02 621.85,489.66"/>
        <lane id=":18_10_1" index="1" speed="13.12" length="18.32" shape="612.28,503.18 616.71,500.94 620.28,498.10 623.01,494.69 624.88,490.68"/>
    </edge>
    <edge id=":18_12" function="internal">
        <lane id=":18_12_0" index="0" speed="11.12" length="4.45" shape="612.28,503.18 616.56,501.98"/>
    </edge>
    <edge id=":18_16" function="internal">
        <lane id=":18_16_0" index="0" speed="11.12" length="15.82" shape="616.56,501.98 617.72,501.66 622.66,501.67 627.08,503.22 630.99,506.32"/>
    </edge>
    <edge id=":2_0" function="internal">
        <lane id=":2_0_0" index="0" speed="13.89" length="18.09" shape="178.47,354.41 177.55,350.27 176.52,345.56 175.32,340.90 173.92,336.93"/>
    </edge>
    <edge id=":2_1" function="internal">
        <lane id=":2_1_0" index="0" speed="8.82" length="25.66" shape="178.47,354.41 177.61,346.59 179.58,342.04 184.37,340.74 191.99,342.70"/>
    </edge>
    <edge id=":2_2" function="internal">
        <lane id=":2_2_0" index="0" speed="5.58" length="9.36" shape="189.62,348.65 186.85,347.93 185.10,348.40 184.38,350.07 184.69,352.92"/>
    </edge>
    <edge id=":2_3" function="internal">
        <lane id=":2_3_0" index="0" speed="13.89" length="19.42" shape="190.81,345.67 184.73,343.47 179.81,341.70 176.17,339.73 173.92,336.93"/>
    </edge>
    <edge id=":2_4" function="internal">
        <lane id=":2_4_0" index="0" speed="13.02" length="15.42" shape="179.77,334.34 182.29,338.24 185.26,340.36 188.54,341.56 191.99,342.70"/>
    </edge>
    <edge id=":2_5" function="internal">
        <lane id=":2_5_0" index="0" speed="13.89" length="19.00" shape="179.77,334.34 181.87,339.63 182.85,343.42 183.52,347.31 184.69,352.92"/>
        <lane id=":2_5_1" index="1" speed="13.89" length="19.00" shape="176.85,335.63 178.87,340.77 179.81,344.44 180.45,348.22 181.58,353.66"/>
    </edge>
    <edge id=":24_0" function="internal">
        <lane id=":24_0_0" index="0" speed="5.77" length="9.27" shape="555.84,768.93 555.07,766.27 553.74,764.90 551.87,764.84 549.44,766.06"/>
    </edge>
    <edge id=":24_1" function="internal">
        <lane id=":24_1_0" index="0" speed="13.89" length="22.97" shape="555.84,768.93 554.88,762.68 553.83,757.92 552.04,753.44 548.89,748.01"/>
        <lane id=":24_1_1" index="1" speed="13.89" length="22.97" shape="559.01,768.45 557.97,762.00 556.76,756.81 554.81,751.90 551.58,746.28"/>
    </edge>
    <edge id=":24_3" function="internal">
        <lane id=":24_3_0" index="0" speed="12.18" length="9.16" shape="559.01,768.45 558.60,761.39 558.98,759.34"/>
    </edge>
    <edge id=":24_4" function="internal">
        <lane id=":24_4_0" index="0" speed="8.14" length="7.83" shape="559.01,768.45 558.73,761.31 559.01,760.68"/>
    </edge>
    <edge id=":24_22" function="internal">
        <lane id=":24_22_0" index="0" speed="12.18" length="14.72" shape="558.98,759.34 559.70,755.50 562.30,750.79 566.41,747.24"/>
    </edge>
    <edge id=":24_23" function="internal">
        <lane id=":24_23_0" index="0" speed="8.14" length="14.14" shape="559.01,760.68 560.55,757.29 564.46,756.39 570.46,758.62"/>
    </edge>
    <edge id=":24_5" function="internal">
        <lane id=":24_5_0" index="0" speed="5.56" length="9.40" shape="567.43,764.26 564.72,763.21 562.94,763.48 562.09,765.07 562.17,767.97"/>
    </edge>
    <edge id=":24_6" function="internal">
        <lane id=":24_6_0" index="0" speed="11.38" length="19.09" shape="567.43,764.26 563.05,762.62 558.59,762.38 554.06,763.52 549.44,766.06"/>
    </edge>
    <edge id=":24_7" function="internal">
        <lane id=":24_7_0" index="0" speed="13.89" length="24.20" shape="567.43,764.26 561.58,760.91 556.88,757.52 552.83,753.43 548.89,748.01"/>
        <lane id=":24_7_1" index="1" speed="13.89" length="24.20" shape="568.95,761.44 563.28,758.26 558.99,755.24 555.33,751.53 551.58,746.28"/>
    </edge>
    <edge id=":24_9" function="internal">
        <lane id=":24_9_0" index="0" speed="7.94" length="19.60" shape="568.95,761.44 563.63,757.78 561.44,754.20 562.37,750.68 566.41,747.24"/>
    </edge>
    <edge id=":24_10" function="internal">
        <lane id=":24_10_0" index="0" speed="6.35" length="12.03" shape="568.07,749.97 565.81,751.98 565.46,754.09 567.00,756.30 570.46,758.62"/>
    </edge>
    <edge id=":24_11" function="internal">
        <lane id=":24_11_0" index="0" speed="11.20" length="20.11" shape="568.07,749.97 564.74,752.90 562.64,756.88 561.79,761.90 562.17,767.97"/>
    </edge>
    <edge id=":24_12" function="internal">
        <lane id=":24_12_0" index="0" speed="13.89" length="24.49" shape="568.07,749.97 547.62,763.43"/>
    </edge>
    <edge id=":24_13" function="internal">
        <lane id=":24_13_0" index="0" speed="9.30" length="6.40" shape="568.07,749.97 563.24,752.06 562.11,752.08"/>
    </edge>
    <edge id=":24_24" function="internal">
        <lane id=":24_24_0" index="0" speed="9.30" length="12.77" shape="562.11,752.08 558.87,752.14 554.99,750.21 551.58,746.28"/>
    </edge>
    <edge id=":24_14" function="internal">
        <lane id=":24_14_0" index="0" speed="7.37" length="11.67" shape="556.96,742.82 559.32,745.84 561.67,747.58 564.04,748.05 566.41,747.24"/>
    </edge>
    <edge id=":24_15" function="internal">
        <lane id=":24_15_0" index="0" speed="13.89" length="20.96" shape="556.96,742.82 560.73,748.51 564.09,752.99 567.25,756.34 570.46,758.62"/>
    </edge>
    <edge id=":24_16" function="internal">
        <lane id=":24_16_0" index="0" speed="13.89" length="25.94" shape="556.96,742.82 559.95,749.61 561.31,756.70 561.80,763.14 562.17,767.97"/>
    </edge>
    <edge id=":24_17" function="internal">
        <lane id=":24_17_0" index="0" speed="10.08" length="5.04" shape="554.27,744.55 556.15,749.23"/>
    </edge>
    <edge id=":24_25" function="internal">
        <lane id=":24_25_0" index="0" speed="10.08" length="17.47" shape="556.15,749.23 556.23,749.43 555.77,754.20 552.90,758.87 547.62,763.43"/>
    </edge>
    <edge id=":24_18" function="internal">
        <lane id=":24_18_0" index="0" speed="7.65" length="12.54" shape="543.96,758.18 547.24,755.48 549.15,752.88 549.70,750.40 548.89,748.01"/>
    </edge>
    <edge id=":24_19" function="internal">
        <lane id=":24_19_0" index="0" speed="13.89" length="25.01" shape="543.96,758.18 550.33,754.43 556.66,751.54 562.26,749.24 566.41,747.24"/>
    </edge>
    <edge id=":24_20" function="internal">
        <lane id=":24_20_0" index="0" speed="13.27" length="7.35" shape="545.79,760.81 552.03,757.40 552.27,757.35"/>
    </edge>
    <edge id=":24_21" function="internal">
        <lane id=":24_21_0" index="0" speed="8.83" length="6.32" shape="545.79,760.81 551.43,757.94"/>
    </edge>
    <edge id=":24_26" function="internal">
        <lane id=":24_26_0" index="0" speed="13.27" length="18.80" shape="552.27,757.35 558.22,755.91 564.36,756.31 570.46,758.62"/>
    </edge>
    <edge id=":24_27" function="internal">
        <lane id=":24_27_0" index="0" speed="8.83" length="17.30" shape="551.43,757.94 552.00,757.65 556.80,757.79 560.19,761.23 562.17,767.97"/>
    </edge>
    <edge id=":37_0" function="internal">
        <lane id=":37_0_0" index="0" speed="10.46" length="16.36" shape="237.89,225.94 235.90,222.19 233.17,219.40 229.71,217.57 225.51,216.70"/>
    </edge>
    <edge id=":37_1" function="internal">
        <lane id=":37_1_0" index="0" speed="13.89" length="22.30" shape="237.89,225.94 230.54,204.77"/>
        <lane id=":37_1_1" index="1" speed="13.89" length="22.30" shape="240.88,224.79 233.60,203.84"/>
    </edge>
    <edge id=":37_3" function="internal">
        <lane id=":37_3_0" index="0" speed="12.22" length="4.17" shape="240.88,224.79 240.21,220.68"/>
    </edge>
    <edge id=":37_4" function="internal">
        <lane id=":37_4_0" index="0" speed="8.64" length="2.86" shape="240.88,224.79 240.66,221.94"/>
    </edge>
    <edge id=":37_23" function="internal">
        <lane id=":37_23_0" index="0" speed="12.22" length="24.97" shape="240.21,220.68 239.87,218.63 241.63,212.63 246.17,206.80 253.48,201.13"/>
    </edge>
    <edge id=":37_24" function="internal">
        <lane id=":37_24_0" index="0" speed="8.64" length="21.33" shape="240.66,221.94 240.43,218.91 243.85,215.67 249.90,214.69 257.30,215.57"/>
    </edge>
    <edge id=":37_5" function="internal">
        <lane id=":37_5_0" index="0" speed="6.60" length="13.50" shape="256.61,218.70 251.40,217.92 248.04,218.29 246.53,219.82 246.86,222.50"/>
    </edge>
    <edge id=":37_6" function="internal">
        <lane id=":37_6_0" index="0" speed="13.89" length="31.18" shape="256.61,218.70 251.09,218.05 242.97,217.61 233.89,217.21 225.51,216.70"/>
    </edge>
    <edge id=":37_7" function="internal">
        <lane id=":37_7_0" index="0" speed="13.89" length="8.42" shape="256.61,218.70 248.53,216.35"/>
    </edge>
    <edge id=":37_8" function="internal">
        <lane id=":37_8_0" index="0" speed="8.15" length="2.76" shape="256.61,218.70 254.14,217.45"/>
    </edge>
    <edge id=":37_25" function="internal">
        <lane id=":37_25_0" index="0" speed="13.89" length="20.15" shape="248.53,216.35 247.74,216.12 240.95,212.79 236.23,208.69 233.60,203.84"/>
    </edge>
    <edge id=":37_26" function="internal">
        <lane id=":37_26_0" index="0" speed="8.15" length="20.80" shape="254.14,217.45 250.86,215.80 248.29,211.12 249.09,205.83 253.48,201.13"/>
    </edge>
    <edge id=":37_9" function="internal">
        <lane id=":37_9_0" index="0" speed="5.48" length="9.73" shape="256.94,206.52 254.53,208.48 253.90,210.12 255.06,211.44 258.00,212.45"/>
    </edge>
    <edge id=":37_10" function="internal">
        <lane id=":37_10_0" index="0" speed="10.28" length="20.36" shape="256.94,206.52 251.43,210.65 247.91,214.69 246.39,218.64 246.86,222.50"/>
    </edge>
    <edge id=":37_11" function="internal">
        <lane id=":37_11_0" index="0" speed="13.89" length="32.48" shape="256.94,206.52 249.88,210.51 241.80,213.95 233.44,216.22 225.51,216.70"/>
        <lane id=":37_11_1" index="1" speed="13.89" length="32.48" shape="255.21,203.82 248.46,207.74 241.08,211.01 233.40,213.11 225.78,213.51"/>
    </edge>
    <edge id=":37_13" function="internal">
        <lane id=":37_13_0" index="0" speed="9.70" length="25.83" shape="255.21,203.82 247.98,207.92 241.72,209.89 236.80,208.83 233.60,203.84"/>
    </edge>
    <edge id=":37_14" function="internal">
        <lane id=":37_14_0" index="0" speed="7.75" length="16.03" shape="239.72,201.98 241.35,204.43 244.18,205.11 248.22,204.01 253.48,201.13"/>
    </edge>
    <edge id=":37_15" function="internal">
        <lane id=":37_15_0" index="0" speed="12.47" length="21.85" shape="239.72,201.98 241.65,205.22 245.34,208.04 250.79,210.45 258.00,212.45"/>
    </edge>
    <edge id=":37_16" function="internal">
        <lane id=":37_16_0" index="0" speed="13.89" length="21.84" shape="239.72,201.98 246.86,222.50"/>
        <lane id=":37_16_1" index="1" speed="13.89" length="21.84" shape="236.66,202.91 243.87,223.64"/>
    </edge>
    <edge id=":37_18" function="internal">
        <lane id=":37_18_0" index="0" speed="8.21" length="3.54" shape="236.66,202.91 237.12,206.42"/>
    </edge>
    <edge id=":37_27" function="internal">
        <lane id=":37_27_0" index="0" speed="8.21" length="15.80" shape="237.12,206.42 237.33,208.01 235.74,211.47 231.89,213.31 225.78,213.51"/>
    </edge>
    <edge id=":37_19" function="internal">
        <lane id=":37_19_0" index="0" speed="5.84" length="9.13" shape="226.05,210.32 228.71,210.17 230.34,209.20 230.95,207.40 230.54,204.77"/>
    </edge>
    <edge id=":37_20" function="internal">
        <lane id=":37_20_0" index="0" speed="13.89" length="29.08" shape="226.05,210.32 231.85,209.44 240.06,206.90 248.12,203.77 253.48,201.13"/>
    </edge>
    <edge id=":37_21" function="internal">
        <lane id=":37_21_0" index="0" speed="13.89" length="31.70" shape="226.05,210.32 231.66,211.01 239.88,212.29 249.00,213.90 257.30,215.57"/>
    </edge>
    <edge id=":37_22" function="internal">
        <lane id=":37_22_0" index="0" speed="12.47" length="12.56" shape="226.05,210.32 232.09,211.57 237.07,214.21 237.60,214.75"/>
    </edge>
    <edge id=":37_28" function="internal">
        <lane id=":37_28_0" index="0" speed="12.47" length="10.99" shape="237.60,214.75 241.00,218.23 243.87,223.64"/>
    </edge>
    <edge id=":63_0" function="internal">
        <lane id=":63_0_0" index="0" speed="7.03" length="4.63" shape="463.95,373.29 462.97,372.63 461.92,372.21 460.80,372.03 459.61,372.09"/>
        <lane id=":63_0_1" index="1" speed="8.25" length="6.54" shape="463.95,373.29 463.02,372.32 461.63,370.82 460.21,369.46 459.15,368.93"/>
    </edge>
    <edge id=":63_2" function="internal">
        <lane id=":63_2_0" index="0" speed="10.89" length="11.75" shape="458.22,362.60 457.95,363.22 459.16,364.79 461.83,367.32 465.97,370.80"/>
    </edge>
    <edge id=":8_0" function="internal">
        <lane id=":8_0_0" index="0" speed="10.35" length="13.08" shape="442.92,583.09 441.00,580.87 438.46,579.25 435.30,578.21 431.53,577.76"/>
    </edge>
    <edge id=":8_1" function="internal">
        <lane id=":8_1_0" index="0" speed="13.89" length="19.22" shape="442.92,583.09 439.87,577.54 438.00,572.90 436.54,569.02 434.73,565.75"/>
    </edge>
    <edge id=":8_2" function="internal">
        <lane id=":8_2_0" index="0" speed="8.39" length="3.33" shape="445.61,581.36 444.35,578.29"/>
    </edge>
    <edge id=":8_13" function="internal">
        <lane id=":8_13_0" index="0" speed="8.39" length="14.64" shape="444.35,578.29 443.91,577.22 444.42,573.57 447.15,570.41 452.10,567.72"/>
    </edge>
    <edge id=":8_3" function="internal">
        <lane id=":8_3_0" index="0" speed="6.14" length="9.06" shape="453.30,570.69 451.09,571.97 449.97,573.60 449.94,575.58 451.00,577.90"/>
    </edge>
    <edge id=":8_4" function="internal">
        <lane id=":8_4_0" index="0" speed="13.89" length="22.15" shape="453.30,570.69 449.36,572.14 444.48,573.47 438.60,574.38 431.65,574.56"/>
    </edge>
    <edge id=":8_5" function="internal">
        <lane id=":8_5_0" index="0" speed="10.65" length="6.26" shape="453.30,570.69 447.84,572.12 447.22,572.07"/>
    </edge>
    <edge id=":8_14" function="internal">
        <lane id=":8_14_0" index="0" speed="10.65" length="14.62" shape="447.22,572.07 442.92,571.77 438.55,569.64 434.73,565.75"/>
    </edge>
    <edge id=":8_6" function="internal">
        <lane id=":8_6_0" index="0" speed="8.31" length="12.38" shape="439.87,561.93 442.11,564.21 444.70,565.44 447.63,565.62 450.90,564.76"/>
    </edge>
    <edge id=":8_7" function="internal">
        <lane id=":8_7_0" index="0" speed="13.89" length="19.36" shape="439.87,561.93 451.00,577.90"/>
        <lane id=":8_7_1" index="1" speed="13.89" length="19.36" shape="437.30,563.84 448.31,579.63"/>
    </edge>
    <edge id=":8_9" function="internal">
        <lane id=":8_9_0" index="0" speed="7.38" length="7.88" shape="437.30,563.84 440.08,568.73 440.07,570.98"/>
    </edge>
    <edge id=":8_15" function="internal">
        <lane id=":8_15_0" index="0" speed="7.38" length="10.20" shape="440.07,570.98 440.06,572.15 437.25,574.09 431.65,574.56"/>
    </edge>
    <edge id=":8_10" function="internal">
        <lane id=":8_10_0" index="0" speed="5.53" length="9.47" shape="431.77,571.36 434.71,571.12 436.18,570.10 436.18,568.31 434.73,565.75"/>
    </edge>
    <edge id=":8_11" function="internal">