<?xml version="1.0" encoding="UTF-8"?>

<!-- generated on 2022-02-02 15:34:47 by Eclipse SUMO netgenerate Version 1.12.0
<configuration xmlns:xsi="http://www.w3.org/2001/XMLSchema-instance" xsi:noNamespaceSchemaLocation="http://sumo.dlr.de/xsd/netgenerateConfiguration.xsd">

    <spider_network>
        <spider value="true"/>
        <spider.arm-number value="4"/>
        <spider.circle-number value="3"/>
        <spider.space-radius value="150"/>
        <spider.omit-center value="true"/>
    </spider_network>

    <output>
        <output-file value="spider.net.xml"/>
    </output>

    <building_defaults>
        <default.lanenumber value="3"/>
        <default-junction-type value="traffic_light"/>
    </building_defaults>

    <junctions>
        <no-turnarounds value="true"/>
    </junctions>

</configuration>
-->

<net version="1.9" junctionCornerDetail="5" limitTurnSpeed="5.50" xmlns:xsi="http://www.w3.org/2001/XMLSchema-instance" xsi:noNamespaceSchemaLocation="http://sumo.dlr.de/xsd/net_file.xsd">

    <location netOffset="450.00,450.00" convBoundary="0.00,0.00,900.00,900.00" origBoundary="-450.00,-450.00,450.00,450.00" projParameter="!"/>

    <edge id=":B1_0" function="internal">
        <lane id=":B1_0_0" index="0" speed="12.58" length="14.65" shape="607.98,458.00 603.86,458.44 601.24,459.78 599.01,462.05 596.04,465.27"/>
        <lane id=":B1_0_1" index="1" speed="13.43" length="16.76" shape="607.98,454.80 604.84,455.31 601.43,456.85 597.74,459.42 593.78,463.01"/>
    </edge>
    <edge id=":B1_2" function="internal">
        <lane id=":B1_2_0" index="0" speed="13.89" length="22.98" shape="607.98,451.60 601.73,451.11 596.15,449.64 591.23,447.20 586.99,443.78"/>
        <lane id=":B1_2_1" index="1" speed="13.89" length="21.77" shape="607.98,451.60 603.57,450.97 598.98,449.08 594.20,445.93 589.25,441.51"/>
    </edge>
    <edge id=":B1_4" function="internal">
        <lane id=":B1_4_0" index="0" speed="12.42" length="14.26" shape="596.04,434.73 599.51,437.91 602.66,440.18 605.48,441.55 607.98,442.00"/>
        <lane id=":B1_4_1" index="1" speed="13.43" length="16.76" shape="593.78,436.99 597.74,440.58 601.43,443.15 604.84,444.69 607.98,445.20"/>
    </edge>
    <edge id=":B1_6" function="internal">
        <lane id=":B1_6_0" index="0" speed="10.88" length="4.07" shape="591.51,439.25 594.03,442.45"/>
        <lane id=":B1_6_1" index="1" speed="10.36" length="3.60" shape="591.51,439.25 593.67,442.13"/>
    </edge>
    <edge id=":B1_12" function="internal">
        <lane id=":B1_12_0" index="0" speed="10.88" length="23.08" shape="594.03,442.45 596.54,445.62 598.59,451.70 597.67,457.50 593.78,463.01"/>
    </edge>
    <edge id=":B1_13" function="internal">
        <lane id=":B1_13_0" index="0" speed="10.36" length="20.92" shape="593.67,442.13 595.55,444.63 596.89,450.00 595.55,455.37 591.51,460.75"/>
    </edge>
    <edge id=":B1_8" function="internal">
        <lane id=":B1_8_0" index="0" speed="6.51" length="9.03" shape="584.73,453.96 586.21,451.98 586.71,450.00 586.21,448.02 584.73,446.04"/>
    </edge>
    <edge id=":B1_9" function="internal">
        <lane id=":B1_9_0" index="0" speed="13.89" length="26.79" shape="584.73,453.96 590.66,448.73 596.52,444.99 602.29,442.75 607.98,442.00"/>
        <lane id=":B1_9_1" index="1" speed="13.89" length="24.28" shape="586.99,456.22 592.43,451.40 597.75,447.96 602.93,445.89 607.98,445.20"/>
        <lane id=":B1_9_2" index="2" speed="13.89" length="21.77" shape="589.25,458.49 594.20,454.07 598.98,450.92 603.57,449.03 607.98,448.40"/>
    </edge>
    <edge id=":B2_0" function="internal">
        <lane id=":B2_0_0" index="0" speed="12.42" length="14.26" shape="442.00,607.98 441.55,605.48 440.18,602.66 437.91,599.51 434.73,596.04"/>
        <lane id=":B2_0_1" index="1" speed="13.43" length="16.76" shape="445.20,607.98 444.69,604.84 443.15,601.43 440.58,597.74 436.99,593.78"/>
    </edge>
    <edge id=":B2_2" function="internal">
        <lane id=":B2_2_0" index="0" speed="13.89" length="22.98" shape="448.40,607.98 448.89,601.73 450.36,596.15 452.80,591.23 456.22,586.99"/>
        <lane id=":B2_2_1" index="1" speed="13.89" length="21.77" shape="448.40,607.98 449.03,603.57 450.92,598.98 454.07,594.20 458.49,589.25"/>
    </edge>
    <edge id=":B2_4" function="internal">
        <lane id=":B2_4_0" index="0" speed="12.42" length="14.26" shape="465.27,596.04 462.09,599.51 459.82,602.66 458.45,605.48 458.00,607.98"/>
        <lane id=":B2_4_1" index="1" speed="13.43" length="16.76" shape="463.01,593.78 459.42,597.74 456.85,601.43 455.31,604.84 454.80,607.98"/>
    </edge>
    <edge id=":B2_6" function="internal">
        <lane id=":B2_6_0" index="0" speed="10.88" length="4.07" shape="460.75,591.51 457.55,594.03"/>
        <lane id=":B2_6_1" index="1" speed="10.36" length="3.60" shape="460.75,591.51 457.87,593.67"/>
    </edge>
    <edge id=":B2_12" function="internal">
        <lane id=":B2_12_0" index="0" speed="10.88" length="23.08" shape="457.55,594.03 454.38,596.54 448.30,598.59 442.50,597.67 436.99,593.78"/>
    </edge>
    <edge id=":B2_13" function="internal">
        <lane id=":B2_13_0" index="0" speed="10.36" length="20.92" shape="457.87,593.67 455.37,595.55 450.00,596.89 444.63,595.55 439.25,591.51"/>
    </edge>
    <edge id=":B2_8" function="internal">
        <lane id=":B2_8_0" index="0" speed="6.51" length="9.03" shape="446.04,584.73 448.02,586.21 450.00,586.71 451.98,586.21 453.96,584.73"/>
    </edge>
    <edge id=":B2_9" function="internal">
        <lane id=":B2_9_0" index="0" speed="13.89" length="26.79" shape="446.04,584.73 451.27,590.66 455.01,596.52 457.25,602.29 458.00,607.98"/>
        <lane id=":B2_9_1" index="1" speed="13.89" length="24.28" shape="443.78,586.99 448.60,592.43 452.04,597.75 454.11,602.93 454.80,607.98"/>
        <lane id=":B2_9_2" index="2" speed="13.89" length="21.77" shape="441.51,589.25 445.93,594.20 449.08,598.98 450.97,603.57 451.60,607.98"/>
    </edge>
    <edge id=":B3_0" function="internal">
        <lane id=":B3_0_0" index="0" speed="12.42" length="14.26" shape="303.96,465.27 300.49,462.09 297.34,459.82 294.52,458.45 292.02,458.00"/>
        <lane id=":B3_0_1" index="1" speed="13.43" length="16.76" shape="306.22,463.01 302.26,459.42 298.57,456.85 295.16,455.31 292.02,454.80"/>
    </edge>
    <edge id=":B3_2" function="internal">
        <lane id=":B3_2_0" index="0" speed="10.88" length="27.14" shape="308.49,460.75 303.46,454.38 301.41,448.30 302.33,442.50 306.22,436.99"/>
        <lane id=":B3_2_1" index="1" speed="10.36" length="24.51" shape="308.49,460.75 304.45,455.37 303.11,450.00 304.45,444.63 308.49,439.25"/>
    </edge>
    <edge id=":B3_4" function="internal">
        <lane id=":B3_4_0" index="0" speed="6.51" length="9.03" shape="315.27,446.04 313.79,448.02 313.29,450.00 313.79,451.98 315.27,453.96"/>
    </edge>
    <edge id=":B3_5" function="internal">
        <lane id=":B3_5_0" index="0" speed="13.89" length="27.35" shape="315.27,446.04 309.58,451.81 305.08,455.49 299.87,457.43 292.02,458.00"/>
        <lane id=":B3_5_1" index="1" speed="13.89" length="24.80" shape="313.01,443.78 307.86,449.04 303.82,452.43 299.12,454.26 292.02,454.80"/>
        <lane id=":B3_5_2" index="2" speed="13.89" length="22.25" shape="310.75,441.51 306.15,446.26 302.55,449.38 298.38,451.08 292.02,451.60"/>
    </edge>
    <edge id=":B3_8" function="internal">
        <lane id=":B3_8_0" index="0" speed="12.58" length="14.65" shape="292.02,442.00 296.14,441.56 298.76,440.22 300.99,437.95 303.96,434.73"/>
        <lane id=":B3_8_1" index="1" speed="13.59" length="17.17" shape="292.02,445.20 296.89,444.73 300.02,443.27 302.71,440.72 306.22,436.99"/>
    </edge>
    <edge id=":B3_10" function="internal">
        <lane id=":B3_10_0" index="0" speed="13.89" length="4.41" shape="292.02,448.40 296.42,448.74"/>
        <lane id=":B3_10_1" index="1" speed="13.89" length="3.21" shape="292.02,448.40 295.20,448.85"/>
    </edge>
    <edge id=":B3_12" function="internal">
        <lane id=":B3_12_0" index="0" speed="13.89" length="18.57" shape="296.42,448.74 298.27,448.89 303.85,450.36 308.77,452.80 313.01,456.22"/>
    </edge>
    <edge id=":B3_13" function="internal">
        <lane id=":B3_13_0" index="0" speed="13.89" length="18.56" shape="295.20,448.85 296.43,449.03 301.02,450.92 305.80,454.07 310.75,458.49"/>
    </edge>
    <edge id=":B4_0" function="internal">
        <lane id=":B4_0_0" index="0" speed="6.51" length="9.03" shape="453.96,315.27 451.98,313.79 450.00,313.29 448.02,313.79 446.04,315.27"/>
    </edge>
    <edge id=":B4_1" function="internal">
        <lane id=":B4_1_0" index="0" speed="13.89" length="27.35" shape="453.96,315.27 448.19,309.58 444.51,305.08 442.57,299.87 442.00,292.02"/>
        <lane id=":B4_1_1" index="1" speed="13.89" length="24.80" shape="456.22,313.01 450.96,307.86 447.57,303.82 445.74,299.12 445.20,292.02"/>
        <lane id=":B4_1_2" index="2" speed="13.89" length="22.25" shape="458.49,310.75 453.74,306.15 450.62,302.55 448.92,298.38 448.40,292.02"/>
    </edge>
    <edge id=":B4_4" function="internal">
        <lane id=":B4_4_0" index="0" speed="12.58" length="14.65" shape="458.00,292.02 458.44,296.14 459.78,298.76 462.05,300.99 465.27,303.96"/>
        <lane id=":B4_4_1" index="1" speed="13.59" length="17.17" shape="454.80,292.02 455.27,296.89 456.73,300.02 459.28,302.71 463.01,306.22"/>
    </edge>
    <edge id=":B4_6" function="internal">
        <lane id=":B4_6_0" index="0" speed="13.89" length="4.41" shape="451.60,292.02 451.26,296.42"/>
        <lane id=":B4_6_1" index="1" speed="13.89" length="3.21" shape="451.60,292.02 451.15,295.20"/>
    </edge>
    <edge id=":B4_12" function="internal">
        <lane id=":B4_12_0" index="0" speed="13.89" length="18.57" shape="451.26,296.42 451.11,298.27 449.64,303.85 447.20,308.77 443.78,313.01"/>
    </edge>
    <edge id=":B4_13" function="internal">
        <lane id=":B4_13_0" index="0" speed="13.89" length="18.56" shape="451.15,295.20 450.97,296.43 449.08,301.02 445.93,305.80 441.51,310.75"/>
    </edge>
    <edge id=":B4_8" function="internal">
        <lane id=":B4_8_0" index="0" speed="12.42" length="14.26" shape="434.73,303.96 437.91,300.49 440.18,297.34 441.55,294.52 442.00,292.02"/>
        <lane id=":B4_8_1" index="1" speed="13.43" length="16.76" shape="436.99,306.22 440.58,302.26 443.15,298.57 444.69,295.16 445.20,292.02"/>
    </edge>
    <edge id=":B4_10" function="internal">
        <lane id=":B4_10_0" index="0" speed="10.88" length="27.14" shape="439.25,308.49 445.62,303.46 451.70,301.41 457.50,302.33 463.01,306.22"/>
        <lane id=":B4_10_1" index="1" speed="10.36" length="24.51" shape="439.25,308.49 444.63,304.45 450.00,303.11 455.37,304.45 460.75,308.49"/>
    </edge>
    <edge id=":C1_0" function="internal">
        <lane id=":C1_0_0" index="0" speed="13.89" length="27.62" shape="757.98,458.00 754.88,459.05 750.26,462.22 744.11,467.49 736.44,474.87"/>
    </edge>
    <edge id=":C1_1" function="internal">
        <lane id=":C1_1_0" index="0" speed="13.89" length="35.15" shape="757.98,458.00 722.82,458.00"/>
        <lane id=":C1_1_1" index="1" speed="13.89" length="35.15" shape="757.98,454.80 722.82,454.80"/>
        <lane id=":C1_1_2" index="2" speed="13.89" length="35.15" shape="757.98,451.60 722.82,451.60"/>
    </edge>
    <edge id=":C1_4" function="internal">
        <lane id=":C1_4_0" index="0" speed="13.89" length="3.04" shape="757.98,451.60 755.02,450.87"/>
    </edge>
    <edge id=":C1_18" function="internal">
        <lane id=":C1_18_0" index="0" speed="13.89" length="31.97" shape="755.02,450.87 752.97,450.37 746.58,446.68 738.80,440.53 729.65,431.91"/>
    </edge>
    <edge id=":C1_5" function="internal">
        <lane id=":C1_5_0" index="0" speed="13.89" length="28.82" shape="736.44,425.13 741.96,431.84 745.71,437.19 750.20,440.72 757.98,442.00"/>
        <lane id=":C1_5_1" index="1" speed="13.89" length="31.28" shape="734.18,427.39 740.24,434.61 744.44,440.24 749.47,443.89 757.98,445.20"/>
    </edge>
    <edge id=":C1_7" function="internal">
        <lane id=":C1_7_0" index="0" speed="13.89" length="51.57" shape="734.18,427.39 742.66,438.69 745.48,450.00 742.66,461.31 734.18,472.61"/>
    </edge>
    <edge id=":C1_8" function="internal">
        <lane id=":C1_8_0" index="0" speed="9.32" length="13.40" shape="731.91,429.65 736.29,437.02 735.97,441.84"/>
    </edge>
    <edge id=":C1_19" function="internal">
        <lane id=":C1_19_0" index="0" speed="9.32" length="17.98" shape="735.97,441.84 735.82,444.13 731.12,449.48 722.82,451.60"/>
    </edge>
    <edge id=":C1_9" function="internal">
        <lane id=":C1_9_0" index="0" speed="5.47" length="9.74" shape="722.82,442.00 725.92,441.65 727.33,440.61 727.07,438.87 725.13,436.44"/>
    </edge>
    <edge id=":C1_10" function="internal">
        <lane id=":C1_10_0" index="0" speed="13.89" length="35.15" shape="722.82,442.00 757.98,442.00"/>
        <lane id=":C1_10_1" index="1" speed="13.89" length="35.15" shape="722.82,445.20 757.98,445.20"/>
        <lane id=":C1_10_2" index="2" speed="13.89" length="35.15" shape="722.82,448.40 757.98,448.40"/>
    </edge>
    <edge id=":C1_13" function="internal">
        <lane id=":C1_13_0" index="0" speed="9.32" length="2.95" shape="722.82,448.40 725.68,449.13"/>
    </edge>
    <edge id=":C1_20" function="internal">
        <lane id=":C1_20_0" index="0" speed="9.32" length="28.43" shape="725.68,449.13 731.12,450.52 735.82,455.87 736.29,462.98 731.91,470.35"/>
    </edge>
    <edge id=":C1_14" function="internal">
        <lane id=":C1_14_0" index="0" speed="5.47" length="9.74" shape="725.13,463.56 727.07,461.13 727.33,459.39 725.92,458.35 722.82,458.00"/>
    </edge>
    <edge id=":C1_15" function="internal">
        <lane id=":C1_15_0" index="0" speed="12.49" length="36.09" shape="727.39,465.82 733.32,457.91 735.30,450.00 733.32,442.09 727.39,434.18"/>
    </edge>
    <edge id=":C1_16" function="internal">
        <lane id=":C1_16_0" index="0" speed="13.89" length="21.97" shape="727.39,465.82 734.53,458.13 741.04,451.53 742.91,450.36"/>
        <lane id=":C1_16_1" index="1" speed="13.89" length="18.20" shape="729.65,468.09 736.44,460.53 741.87,454.60"/>
    </edge>
    <edge id=":C1_21" function="internal">
        <lane id=":C1_21_0" index="0" speed="13.89" length="16.21" shape="742.91,450.36 748.36,446.93 757.98,445.20"/>
    </edge>
    <edge id=":C1_22" function="internal">
        <lane id=":C1_22_0" index="0" speed="13.89" length="17.67" shape="741.87,454.60 742.17,454.27 748.71,449.98 757.98,448.40"/>
    </edge>
    <edge id=":C2_0" function="internal">
        <lane id=":C2_0_0" index="0" speed="13.89" length="27.62" shape="442.00,757.98 440.95,754.88 437.78,750.26 432.51,744.11 425.13,736.44"/>
    </edge>
    <edge id=":C2_1" function="internal">
        <lane id=":C2_1_0" index="0" speed="13.89" length="35.15" shape="442.00,757.98 442.00,722.82"/>
        <lane id=":C2_1_1" index="1" speed="13.89" length="35.15" shape="445.20,757.98 445.20,722.82"/>
        <lane id=":C2_1_2" index="2" speed="13.89" length="35.15" shape="448.40,757.98 448.40,722.82"/>
    </edge>
    <edge id=":C2_4" function="internal">
        <lane id=":C2_4_0" index="0" speed="13.89" length="3.04" shape="448.40,757.98 449.13,755.02"/>
    </edge>
    <edge id=":C2_18" function="internal">
        <lane id=":C2_18_0" index="0" speed="13.89" length="31.97" shape="449.13,755.02 449.63,752.97 453.32,746.58 459.47,738.80 468.09,729.65"/>
    </edge>
    <edge id=":C2_5" function="internal">
        <lane id=":C2_5_0" index="0" speed="13.89" length="27.62" shape="474.87,736.44 467.49,744.11 462.22,750.26 459.05,754.88 458.00,757.98"/>
        <lane id=":C2_5_1" index="1" speed="13.89" length="30.07" shape="472.61,734.18 464.82,742.34 459.25,749.03 455.91,754.24 454.80,757.98"/>
    </edge>
    <edge id=":C2_7" function="internal">
        <lane id=":C2_7_0" index="0" speed="13.89" length="51.57" shape="472.61,734.18 461.31,742.66 450.00,745.48 438.69,742.66 427.39,734.18"/>
    </edge>
    <edge id=":C2_8" function="internal">
        <lane id=":C2_8_0" index="0" speed="9.32" length="13.40" shape="470.35,731.91 462.98,736.29 458.16,735.97"/>
    </edge>
    <edge id=":C2_19" function="internal">
        <lane id=":C2_19_0" index="0" speed="9.32" length="17.98" shape="458.16,735.97 455.87,735.82 450.52,731.12 448.40,722.82"/>
    </edge>
    <edge id=":C2_9" function="internal">
        <lane id=":C2_9_0" index="0" speed="5.47" length="9.74" shape="458.00,722.82 458.35,725.92 459.39,727.33 461.13,727.07 463.56,725.13"/>
    </edge>
    <edge id=":C2_10" function="internal">
        <lane id=":C2_10_0" index="0" speed="13.89" length="35.15" shape="458.00,722.82 458.00,757.98"/>
        <lane id=":C2_10_1" index="1" speed="13.89" length="35.15" shape="454.80,722.82 454.80,757.98"/>
        <lane id=":C2_10_2" index="2" speed="13.89" length="35.15" shape="451.60,722.82 451.60,757.98"/>
    </edge>
    <edge id=":C2_13" function="internal">
        <lane id=":C2_13_0" index="0" speed="9.32" length="2.95" shape="451.60,722.82 450.87,725.68"/>
    </edge>
    <edge id=":C2_20" function="internal">
        <lane id=":C2_20_0" index="0" speed="9.32" length="28.43" shape="450.87,725.68 449.48,731.12 444.13,735.82 437.02,736.29 429.65,731.91"/>
    </edge>
    <edge id=":C2_14" function="internal">
        <lane id=":C2_14_0" index="0" speed="5.47" length="9.74" shape="436.44,725.13 438.87,727.07 440.61,727.33 441.65,725.92 442.00,722.82"/>
    </edge>
    <edge id=":C2_15" function="internal">
        <lane id=":C2_15_0" index="0" speed="12.49" length="36.09" shape="434.18,727.39 442.09,733.32 450.00,735.30 457.91,733.32 465.82,727.39"/>
    </edge>
    <edge id=":C2_16" function="internal">
        <lane id=":C2_16_0" index="0" speed="13.89" length="19.98" shape="434.18,727.39 443.20,737.03 447.35,742.39"/>
        <lane id=":C2_16_1" index="1" speed="13.89" length="15.55" shape="431.91,729.65 440.53,738.80 442.38,741.15"/>
    </edge>
    <edge id=":C2_21" function="internal">
        <lane id=":C2_21_0" index="0" speed="13.89" length="17.52" shape="447.35,742.39 449.64,745.35 453.51,752.33 454.80,757.98"/>
    </edge>
    <edge id=":C2_22" function="internal">
        <lane id=":C2_22_0" index="0" speed="13.89" length="19.46" shape="442.38,741.15 446.68,746.58 450.37,752.97 451.60,757.98"/>
    </edge>
    <edge id=":C3_0" function="internal">
        <lane id=":C3_0_0" index="0" speed="13.89" length="27.62" shape="163.56,474.87 155.89,467.49 149.74,462.22 145.12,459.05 142.02,458.00"/>
        <lane id=":C3_0_1" index="1" speed="13.89" length="30.07" shape="165.82,472.61 157.66,464.82 150.97,459.25 145.76,455.91 142.02,454.80"/>
    </edge>
    <edge id=":C3_2" function="internal">
        <lane id=":C3_2_0" index="0" speed="13.89" length="51.57" shape="165.82,472.61 157.34,461.31 154.52,450.00 157.34,438.69 165.82,427.39"/>
    </edge>
    <edge id=":C3_3" function="internal">
        <lane id=":C3_3_0" index="0" speed="9.32" length="13.40" shape="168.09,470.35 163.71,462.98 164.03,458.16"/>
    </edge>
    <edge id=":C3_18" function="internal">
        <lane id=":C3_18_0" index="0" speed="9.32" length="17.98" shape="164.03,458.16 164.18,455.87 168.88,450.52 177.18,448.40"/>
    </edge>
    <edge id=":C3_4" function="internal">
        <lane id=":C3_4_0" index="0" speed="5.47" length="9.74" shape="177.18,458.00 174.08,458.35 172.67,459.39 172.93,461.13 174.87,463.56"/>
    </edge>
    <edge id=":C3_5" function="internal">
        <lane id=":C3_5_0" index="0" speed="13.89" length="35.15" shape="177.18,458.00 142.02,458.00"/>
        <lane id=":C3_5_1" index="1" speed="13.89" length="35.15" shape="177.18,454.80 142.02,454.80"/>
        <lane id=":C3_5_2" index="2" speed="13.89" length="35.15" shape="177.18,451.60 142.02,451.60"/>
    </edge>
    <edge id=":C3_8" function="internal">
        <lane id=":C3_8_0" index="0" speed="9.32" length="2.95" shape="177.18,451.60 174.32,450.87"/>
    </edge>
    <edge id=":C3_19" function="internal">
        <lane id=":C3_19_0" index="0" speed="9.32" length="28.43" shape="174.32,450.87 168.88,449.48 164.18,444.13 163.71,437.02 168.09,429.65"/>
    </edge>
    <edge id=":C3_9" function="internal">
        <lane id=":C3_9_0" index="0" speed="5.47" length="9.74" shape="174.87,436.44 172.93,438.87 172.67,440.61 174.08,441.65 177.18,442.00"/>
    </edge>
    <edge id=":C3_10" function="internal">
        <lane id=":C3_10_0" index="0" speed="12.49" length="36.09" shape="172.61,434.18 166.68,442.09 164.70,450.00 166.68,457.91 172.61,465.82"/>
    </edge>
    <edge id=":C3_11" function="internal">
        <lane id=":C3_11_0" index="0" speed="13.89" length="19.98" shape="172.61,434.18 162.97,443.20 157.61,447.35"/>
        <lane id=":C3_11_1" index="1" speed="13.89" length="15.55" shape="170.35,431.91 161.20,440.53 158.85,442.38"/>
    </edge>
    <edge id=":C3_20" function="internal">
        <lane id=":C3_20_0" index="0" speed="13.89" length="17.52" shape="157.61,447.35 154.65,449.64 147.67,453.51 142.02,454.80"/>
    </edge>
    <edge id=":C3_21" function="internal">
        <lane id=":C3_21_0" index="0" speed="13.89" length="19.46" shape="158.85,442.38 153.42,446.68 147.03,450.37 142.02,451.60"/>
    </edge>
    <edge id=":C3_13" function="internal">
        <lane id=":C3_13_0" index="0" speed="13.89" length="27.62" shape="142.02,442.00 145.12,440.95 149.74,437.78 155.89,432.51 163.56,425.13"/>
    </edge>
    <edge id=":C3_14" function="internal">
        <lane id=":C3_14_0" index="0" speed="13.89" length="35.15" shape="142.02,442.00 177.18,442.00"/>
        <lane id=":C3_14_1" index="1" speed="13.89" length="35.15" shape="142.02,445.20 177.18,445.20"/>
        <lane id=":C3_14_2" index="2" speed="13.89" length="35.15" shape="142.02,448.40 177.18,448.40"/>
    </edge>
    <edge id=":C3_17" function="internal">
        <lane id=":C3_17_0" index="0" speed="13.89" length="4.23" shape="142.02,448.40 146.19,449.11"/>
    </edge>
    <edge id=":C3_22" function="internal">
        <lane id=":C3_22_0" index="0" speed="13.89" length="31.64" shape="146.19,449.11 151.29,449.98 157.83,454.27 163.56,460.53 170.35,468.09"/>
    </edge>
    <edge id=":C4_0" function="internal">
        <lane id=":C4_0_0" index="0" speed="5.47" length="9.74" shape="442.00,177.18 441.65,174.08 440.61,172.67 438.87,172.93 436.44,174.87"/>
    </edge>
    <edge id=":C4_1" function="internal">
        <lane id=":C4_1_0" index="0" speed="13.89" length="35.15" shape="442.00,177.18 442.00,142.02"/>
        <lane id=":C4_1_1" index="1" speed="13.89" length="35.15" shape="445.20,177.18 445.20,142.02"/>
        <lane id=":C4_1_2" index="2" speed="13.89" length="35.15" shape="448.40,177.18 448.40,142.02"/>
    </edge>
    <edge id=":C4_4" function="internal">
        <lane id=":C4_4_0" index="0" speed="9.32" length="2.95" shape="448.40,177.18 449.13,174.32"/>
    </edge>
    <edge id=":C4_18" function="internal">
        <lane id=":C4_18_0" index="0" speed="9.32" length="28.43" shape="449.13,174.32 450.52,168.88 455.87,164.18 462.98,163.71 470.35,168.09"/>
    </edge>
    <edge id=":C4_5" function="internal">
        <lane id=":C4_5_0" index="0" speed="5.47" length="9.74" shape="463.56,174.87 461.13,172.93 459.39,172.67 458.35,174.08 458.00,177.18"/>
    </edge>
    <edge id=":C4_6" function="internal">
        <lane id=":C4_6_0" index="0" speed="12.49" length="36.09" shape="465.82,172.61 457.91,166.68 450.00,164.70 442.09,166.68 434.18,172.61"/>
    </edge>
    <edge id=":C4_7" function="internal">
        <lane id=":C4_7_0" index="0" speed="13.89" length="31.71" shape="465.82,172.61 456.80,162.97 450.36,154.65 446.49,147.67"/>
        <lane id=":C4_7_1" index="1" speed="13.89" length="35.02" shape="468.09,170.35 459.47,161.20 453.32,153.42 449.63,147.03 448.40,142.02"/>
    </edge>
    <edge id=":C4_19" function="internal">
        <lane id=":C4_19_0" index="0" speed="13.89" length="5.79" shape="446.49,147.67 445.20,142.02"/>
    </edge>
    <edge id=":C4_9" function="internal">
        <lane id=":C4_9_0" index="0" speed="13.89" length="27.62" shape="458.00,142.02 459.05,145.12 462.22,149.74 467.49,155.89 474.87,163.56"/>
    </edge>
    <edge id=":C4_10" function="internal">
        <lane id=":C4_10_0" index="0" speed="13.89" length="35.15" shape="458.00,142.02 458.00,177.18"/>
        <lane id=":C4_10_1" index="1" speed="13.89" length="35.15" shape="454.80,142.02 454.80,177.18"/>
        <lane id=":C4_10_2" index="2" speed="13.89" length="35.15" shape="451.60,142.02 451.60,177.18"/>
    </edge>
    <edge id=":C4_13" function="internal">
        <lane id=":C4_13_0" index="0" speed="13.89" length="3.04" shape="451.60,142.02 450.87,144.98"/>
    </edge>
    <edge id=":C4_20" function="internal">
        <lane id=":C4_20_0" index="0" speed="13.89" length="31.97" shape="450.87,144.98 450.37,147.03 446.68,153.42 440.53,161.20 431.91,170.35"/>
    </edge>
    <edge id=":C4_14" function="internal">
        <lane id=":C4_14_0" index="0" speed="13.89" length="28.82" shape="425.13,163.56 431.84,158.04 437.19,154.29 440.72,149.80 442.00,142.02"/>
        <lane id=":C4_14_1" index="1" speed="13.89" length="31.28" shape="427.39,165.82 434.61,159.76 440.24,155.56 443.89,150.53 445.20,142.02"/>
    </edge>
    <edge id=":C4_16" function="internal">
        <lane id=":C4_16_0" index="0" speed="13.89" length="51.57" shape="427.39,165.82 438.69,157.34 450.00,154.52 461.31,157.34 472.61,165.82"/>
    </edge>
    <edge id=":C4_17" function="internal">
        <lane id=":C4_17_0" index="0" speed="9.32" length="13.40" shape="429.65,168.09 437.02,163.71 441.84,164.03"/>
    </edge>
    <edge id=":C4_21" function="internal">
        <lane id=":C4_21_0" index="0" speed="9.32" length="17.98" shape="441.84,164.03 444.13,164.18 449.48,168.88 451.60,177.18"/>
    </edge>
    <edge id=":D1_0" function="internal">
        <lane id=":D1_0_0" index="0" speed="13.89" length="56.73" shape="886.44,425.13 895.77,437.56 898.88,450.00 895.77,462.44 886.44,474.87"/>
        <lane id=":D1_0_1" index="1" speed="13.89" length="51.57" shape="884.18,427.39 892.66,438.69 895.48,450.00 892.66,461.31 884.18,472.61"/>
    </edge>
    <edge id=":D1_2" function="internal">
        <lane id=":D1_2_0" index="0" speed="9.86" length="7.03" shape="881.91,429.65 885.57,435.65"/>
        <lane id=":D1_2_1" index="1" speed="9.32" length="6.25" shape="881.91,429.65 885.11,435.03"/>
    </edge>
    <edge id=":D1_12" function="internal">
        <lane id=":D1_12_0" index="0" speed="9.86" length="28.29" shape="885.57,435.65 887.02,438.01 886.88,446.17 881.99,452.35 872.82,454.80"/>
    </edge>
    <edge id=":D1_13" function="internal">
        <lane id=":D1_13_0" index="0" speed="9.32" length="25.12" shape="885.11,435.03 886.29,437.02 885.82,444.13 881.12,449.48 872.82,451.60"/>
    </edge>
    <edge id=":D1_4" function="internal">
        <lane id=":D1_4_0" index="0" speed="5.47" length="9.74" shape="872.82,442.00 875.92,441.65 877.33,440.61 877.07,438.87 875.13,436.44"/>
        <lane id=":D1_4_1" index="1" speed="7.42" length="19.31" shape="872.82,445.20 878.95,444.51 881.76,442.44 881.24,439.00 877.39,434.18"/>
    </edge>
    <edge id=":D1_6" function="internal">
        <lane id=":D1_6_0" index="0" speed="9.86" length="35.32" shape="872.82,448.40 882.34,450.71 888.01,456.57 888.92,464.40 884.18,472.61"/>
        <lane id=":D1_6_1" index="1" speed="9.32" length="31.38" shape="872.82,448.40 881.12,450.52 885.82,455.87 886.29,462.98 881.91,470.35"/>
    </edge>
    <edge id=":D1_8" function="internal">
        <lane id=":D1_8_0" index="0" speed="5.47" length="9.74" shape="875.13,463.56 877.07,461.13 877.33,459.39 875.92,458.35 872.82,458.00"/>
    </edge>
    <edge id=":D1_9" function="internal">
        <lane id=":D1_9_0" index="0" speed="11.59" length="30.93" shape="875.13,463.56 880.21,456.78 881.91,450.00 880.21,443.22 875.13,436.44"/>
        <lane id=":D1_9_1" index="1" speed="12.49" length="36.09" shape="877.39,465.82 883.32,457.91 885.30,450.00 883.32,442.09 877.39,434.18"/>
        <lane id=":D1_9_2" index="2" speed="13.33" length="41.25" shape="879.65,468.09 886.43,459.04 888.69,450.00 886.43,440.96 879.65,431.91"/>
    </edge>
    <edge id=":D2_0" function="internal">
        <lane id=":D2_0_0" index="0" speed="13.89" length="56.73" shape="474.87,886.44 462.44,895.77 450.00,898.88 437.56,895.77 425.13,886.44"/>
        <lane id=":D2_0_1" index="1" speed="13.89" length="51.57" shape="472.61,884.18 461.31,892.66 450.00,895.48 438.69,892.66 427.39,884.18"/>
    </edge>
    <edge id=":D2_2" function="internal">
        <lane id=":D2_2_0" index="0" speed="9.86" length="7.03" shape="470.35,881.91 464.35,885.57"/>
        <lane id=":D2_2_1" index="1" speed="9.32" length="6.25" shape="470.35,881.91 464.97,885.11"/>
    </edge>
    <edge id=":D2_12" function="internal">
        <lane id=":D2_12_0" index="0" speed="9.86" length="28.29" shape="464.35,885.57 461.99,887.02 453.83,886.88 447.65,881.99 445.20,872.82"/>
    </edge>
    <edge id=":D2_13" function="internal">
        <lane id=":D2_13_0" index="0" speed="9.32" length="25.12" shape="464.97,885.11 462.98,886.29 455.87,885.82 450.52,881.12 448.40,872.82"/>
    </edge>
    <edge id=":D2_4" function="internal">
        <lane id=":D2_4_0" index="0" speed="5.47" length="9.74" shape="458.00,872.82 458.35,875.92 459.39,877.33 461.13,877.07 463.56,875.13"/>
        <lane id=":D2_4_1" index="1" speed="7.42" length="19.31" shape="454.80,872.82 455.49,878.95 457.56,881.76 461.00,881.24 465.82,877.39"/>
    </edge>
    <edge id=":D2_6" function="internal">
        <lane id=":D2_6_0" index="0" speed="9.86" length="35.32" shape="451.60,872.82 449.29,882.34 443.43,888.01 435.60,888.92 427.39,884.18"/>
        <lane id=":D2_6_1" index="1" speed="9.32" length="31.38" shape="451.60,872.82 449.48,881.12 444.13,885.82 437.02,886.29 429.65,881.91"/>
    </edge>
    <edge id=":D2_8" function="internal">