<?xml version="1.0" encoding="UTF-8"?>

<!-- generated on 08/20/21 11:38:33 by Eclipse SUMO netgenerate Version 1.8.0
<configuration xmlns:xsi="http://www.w3.org/2001/XMLSchema-instance" xsi:noNamespaceSchemaLocation="http://sumo.dlr.de/xsd/netgenerateConfiguration.xsd">

    <grid_network>
        <grid value="true"/>
        <grid.x-number value="5"/>
        <grid.y-number value="5"/>
        <grid.x-length value="40"/>
        <grid.y-length value="40"/>
    </grid_network>

    <output>
        <output-file value="grid.net.xml"/>
    </output>

    <building_defaults>
        <default-junction-type value="traffic_light"/>
    </building_defaults>

</configuration>
-->

<net version="1.6" junctionCornerDetail="5" limitTurnSpeed="5.50" xmlns:xsi="http://www.w3.org/2001/XMLSchema-instance" xsi:noNamespaceSchemaLocation="http://sumo.dlr.de/xsd/net_file.xsd">

    <location netOffset="0.00,0.00" convBoundary="0.00,0.00,160.00,160.00" origBoundary="0.00,0.00,160.00,160.00" projParameter="!"/>

    <edge id=":A0_0" function="internal">
        <lane id=":A0_0_0" index="0" speed="6.08" length="7.74" shape="-1.60,3.20 -1.30,1.10 -0.40,-0.40 1.10,-1.30 3.20,-1.60"/>
    </edge>
    <edge id=":A0_1" function="internal">
        <lane id=":A0_1_0" index="0" speed="3.90" length="2.58" shape="3.20,1.60 2.50,1.70 2.00,2.00 1.70,2.50 1.60,3.20"/>
    </edge>
    <edge id=":A1_0" function="internal">
        <lane id=":A1_0_0" index="0" speed="13.89" length="14.40" shape="-1.60,47.20 -1.60,32.80"/>
    </edge>
    <edge id=":A1_1" function="internal">
        <lane id=":A1_1_0" index="0" speed="8.00" length="5.93" shape="-1.60,47.20 -1.05,43.35 0.00,41.60"/>
    </edge>
    <edge id=":A1_2" function="internal">
        <lane id=":A1_2_0" index="0" speed="3.65" length="2.34" shape="-1.60,47.20 -0.80,46.00 0.00,45.60"/>
    </edge>
    <edge id=":A1_9" function="internal">
        <lane id=":A1_9_0" index="0" speed="8.00" length="8.26" shape="0.00,41.60 0.60,40.60 3.35,38.95 7.20,38.40"/>
    </edge>
    <edge id=":A1_10" function="internal">
        <lane id=":A1_10_0" index="0" speed="3.65" length="2.34" shape="0.00,45.60 0.80,46.00 1.60,47.20"/>
    </edge>
    <edge id=":A1_3" function="internal">
        <lane id=":A1_3_0" index="0" speed="6.51" length="9.03" shape="7.20,41.60 4.75,41.95 3.00,43.00 1.95,44.75 1.60,47.20"/>
    </edge>
    <edge id=":A1_4" function="internal">
        <lane id=":A1_4_0" index="0" speed="8.00" length="14.19" shape="7.20,41.60 3.35,41.05 0.60,39.40 -1.05,36.65 -1.60,32.80"/>
    </edge>
    <edge id=":A1_5" function="internal">
        <lane id=":A1_5_0" index="0" speed="3.65" length="2.56" shape="7.20,41.60 6.00,40.80 5.60,40.00 5.70,39.80"/>
    </edge>
    <edge id=":A1_11" function="internal">
        <lane id=":A1_11_0" index="0" speed="3.65" length="2.12" shape="5.70,39.80 6.00,39.20 7.20,38.40"/>
    </edge>
    <edge id=":A1_6" function="internal">
        <lane id=":A1_6_0" index="0" speed="6.51" length="9.03" shape="1.60,32.80 1.95,35.25 3.00,37.00 4.75,38.05 7.20,38.40"/>
    </edge>
    <edge id=":A1_7" function="internal">
        <lane id=":A1_7_0" index="0" speed="13.89" length="14.40" shape="1.60,32.80 1.60,47.20"/>
    </edge>
    <edge id=":A1_8" function="internal">
        <lane id=":A1_8_0" index="0" speed="3.65" length="2.34" shape="1.60,32.80 0.80,34.00 0.00,34.40"/>
    </edge>
    <edge id=":A1_12" function="internal">
        <lane id=":A1_12_0" index="0" speed="3.65" length="2.34" shape="0.00,34.40 -0.80,34.00 -1.60,32.80"/>
    </edge>
    <edge id=":A2_0" function="internal">
        <lane id=":A2_0_0" index="0" speed="13.89" length="14.40" shape="-1.60,87.20 -1.60,72.80"/>
    </edge>
    <edge id=":A2_1" function="internal">
        <lane id=":A2_1_0" index="0" speed="8.00" length="5.93" shape="-1.60,87.20 -1.05,83.35 0.00,81.60"/>
    </edge>
    <edge id=":A2_2" function="internal">
        <lane id=":A2_2_0" index="0" speed="3.65" length="2.34" shape="-1.60,87.20 -0.80,86.00 0.00,85.60"/>
    </edge>
    <edge id=":A2_9" function="internal">
        <lane id=":A2_9_0" index="0" speed="8.00" length="8.26" shape="0.00,81.60 0.60,80.60 3.35,78.95 7.20,78.40"/>
    </edge>
    <edge id=":A2_10" function="internal">
        <lane id=":A2_10_0" index="0" speed="3.65" length="2.34" shape="0.00,85.60 0.80,86.00 1.60,87.20"/>
    </edge>
    <edge id=":A2_3" function="internal">
        <lane id=":A2_3_0" index="0" speed="6.51" length="9.03" shape="7.20,81.60 4.75,81.95 3.00,83.00 1.95,84.75 1.60,87.20"/>
    </edge>
    <edge id=":A2_4" function="internal">
        <lane id=":A2_4_0" index="0" speed="8.00" length="14.19" shape="7.20,81.60 3.35,81.05 0.60,79.40 -1.05,76.65 -1.60,72.80"/>
    </edge>
    <edge id=":A2_5" function="internal">
        <lane id=":A2_5_0" index="0" speed="3.65" length="2.56" shape="7.20,81.60 6.00,80.80 5.60,80.00 5.70,79.80"/>
    </edge>
    <edge id=":A2_11" function="internal">
        <lane id=":A2_11_0" index="0" speed="3.65" length="2.12" shape="5.70,79.80 6.00,79.20 7.20,78.40"/>
    </edge>
    <edge id=":A2_6" function="internal">
        <lane id=":A2_6_0" index="0" speed="6.51" length="9.03" shape="1.60,72.80 1.95,75.25 3.00,77.00 4.75,78.05 7.20,78.40"/>
    </edge>
    <edge id=":A2_7" function="internal">
        <lane id=":A2_7_0" index="0" speed="13.89" length="14.40" shape="1.60,72.80 1.60,87.20"/>
    </edge>
    <edge id=":A2_8" function="internal">
        <lane id=":A2_8_0" index="0" speed="3.65" length="2.34" shape="1.60,72.80 0.80,74.00 0.00,74.40"/>
    </edge>
    <edge id=":A2_12" function="internal">
        <lane id=":A2_12_0" index="0" speed="3.65" length="2.34" shape="0.00,74.40 -0.80,74.00 -1.60,72.80"/>
    </edge>
    <edge id=":A3_0" function="internal">
        <lane id=":A3_0_0" index="0" speed="13.89" length="14.40" shape="-1.60,127.20 -1.60,112.80"/>
    </edge>
    <edge id=":A3_1" function="internal">
        <lane id=":A3_1_0" index="0" speed="8.00" length="5.93" shape="-1.60,127.20 -1.05,123.35 0.00,121.60"/>
    </edge>
    <edge id=":A3_2" function="internal">
        <lane id=":A3_2_0" index="0" speed="3.65" length="2.34" shape="-1.60,127.20 -0.80,126.00 0.00,125.60"/>
    </edge>
    <edge id=":A3_9" function="internal">
        <lane id=":A3_9_0" index="0" speed="8.00" length="8.26" shape="0.00,121.60 0.60,120.60 3.35,118.95 7.20,118.40"/>
    </edge>
    <edge id=":A3_10" function="internal">
        <lane id=":A3_10_0" index="0" speed="3.65" length="2.34" shape="0.00,125.60 0.80,126.00 1.60,127.20"/>
    </edge>
    <edge id=":A3_3" function="internal">
        <lane id=":A3_3_0" index="0" speed="6.51" length="9.03" shape="7.20,121.60 4.75,121.95 3.00,123.00 1.95,124.75 1.60,127.20"/>
    </edge>
    <edge id=":A3_4" function="internal">
        <lane id=":A3_4_0" index="0" speed="8.00" length="14.19" shape="7.20,121.60 3.35,121.05 0.60,119.40 -1.05,116.65 -1.60,112.80"/>
    </edge>
    <edge id=":A3_5" function="internal">
        <lane id=":A3_5_0" index="0" speed="3.65" length="2.56" shape="7.20,121.60 6.00,120.80 5.60,120.00 5.70,119.80"/>
    </edge>
    <edge id=":A3_11" function="internal">
        <lane id=":A3_11_0" index="0" speed="3.65" length="2.12" shape="5.70,119.80 6.00,119.20 7.20,118.40"/>
    </edge>
    <edge id=":A3_6" function="internal">
        <lane id=":A3_6_0" index="0" speed="6.51" length="9.03" shape="1.60,112.80 1.95,115.25 3.00,117.00 4.75,118.05 7.20,118.40"/>
    </edge>
    <edge id=":A3_7" function="internal">
        <lane id=":A3_7_0" index="0" speed="13.89" length="14.40" shape="1.60,112.80 1.60,127.20"/>
    </edge>
    <edge id=":A3_8" function="internal">
        <lane id=":A3_8_0" index="0" speed="3.65" length="2.34" shape="1.60,112.80 0.80,114.00 0.00,114.40"/>
    </edge>
    <edge id=":A3_12" function="internal">
        <lane id=":A3_12_0" index="0" speed="3.65" length="2.34" shape="0.00,114.40 -0.80,114.00 -1.60,112.80"/>
    </edge>
    <edge id=":A4_0" function="internal">
        <lane id=":A4_0_0" index="0" speed="6.08" length="7.74" shape="3.20,161.60 1.10,161.30 -0.40,160.40 -1.30,158.90 -1.60,156.80"/>
    </edge>
    <edge id=":A4_1" function="internal">
        <lane id=":A4_1_0" index="0" speed="3.90" length="2.58" shape="1.60,156.80 1.70,157.50 2.00,158.00 2.50,158.30 3.20,158.40"/>
    </edge>
    <edge id=":B0_0" function="internal">
        <lane id=":B0_0_0" index="0" speed="6.51" length="9.03" shape="38.40,7.20 38.05,4.75 37.00,3.00 35.25,1.95 32.80,1.60"/>
    </edge>
    <edge id=":B0_1" function="internal">
        <lane id=":B0_1_0" index="0" speed="8.00" length="14.19" shape="38.40,7.20 38.95,3.35 40.60,0.60 43.35,-1.05 47.20,-1.60"/>
    </edge>
    <edge id=":B0_2" function="internal">
        <lane id=":B0_2_0" index="0" speed="3.65" length="2.56" shape="38.40,7.20 39.20,6.00 40.00,5.60 40.20,5.70"/>
    </edge>
    <edge id=":B0_9" function="internal">
        <lane id=":B0_9_0" index="0" speed="3.65" length="2.12" shape="40.20,5.70 40.80,6.00 41.60,7.20"/>
    </edge>
    <edge id=":B0_3" function="internal">
        <lane id=":B0_3_0" index="0" speed="6.51" length="9.03" shape="47.20,1.60 44.75,1.95 43.00,3.00 41.95,4.75 41.60,7.20"/>
    </edge>
    <edge id=":B0_4" function="internal">
        <lane id=":B0_4_0" index="0" speed="13.89" length="14.40" shape="47.20,1.60 32.80,1.60"/>
    </edge>
    <edge id=":B0_5" function="internal">
        <lane id=":B0_5_0" index="0" speed="3.65" length="2.34" shape="47.20,1.60 46.00,0.80 45.60,0.00"/>
    </edge>
    <edge id=":B0_10" function="internal">
        <lane id=":B0_10_0" index="0" speed="3.65" length="2.34" shape="45.60,0.00 46.00,-0.80 47.20,-1.60"/>
    </edge>
    <edge id=":B0_6" function="internal">
        <lane id=":B0_6_0" index="0" speed="13.89" length="14.40" shape="32.80,-1.60 47.20,-1.60"/>
    </edge>
    <edge id=":B0_7" function="internal">
        <lane id=":B0_7_0" index="0" speed="8.00" length="5.93" shape="32.80,-1.60 36.65,-1.05 38.40,0.00"/>
    </edge>
    <edge id=":B0_8" function="internal">
        <lane id=":B0_8_0" index="0" speed="3.65" length="2.34" shape="32.80,-1.60 34.00,-0.80 34.40,0.00"/>
    </edge>
    <edge id=":B0_11" function="internal">
        <lane id=":B0_11_0" index="0" speed="8.00" length="8.26" shape="38.40,0.00 39.40,0.60 41.05,3.35 41.60,7.20"/>
    </edge>
    <edge id=":B0_12" function="internal">
        <lane id=":B0_12_0" index="0" speed="3.65" length="2.34" shape="34.40,0.00 34.00,0.80 32.80,1.60"/>
    </edge>
    <edge id=":B1_0" function="internal">
        <lane id=":B1_0_0" index="0" speed="6.51" length="9.03" shape="38.40,47.20 38.05,44.75 37.00,43.00 35.25,41.95 32.80,41.60"/>
    </edge>
    <edge id=":B1_1" function="internal">
        <lane id=":B1_1_0" index="0" speed="13.89" length="14.40" shape="38.40,47.20 38.40,32.80"/>
    </edge>
    <edge id=":B1_2" function="internal">
        <lane id=":B1_2_0" index="0" speed="8.00" length="5.93" shape="38.40,47.20 38.95,43.35 40.00,41.60"/>
    </edge>
    <edge id=":B1_3" function="internal">
        <lane id=":B1_3_0" index="0" speed="3.65" length="2.34" shape="38.40,47.20 39.20,46.00 40.00,45.60"/>
    </edge>
    <edge id=":B1_16" function="internal">
        <lane id=":B1_16_0" index="0" speed="8.00" length="8.26" shape="40.00,41.60 40.60,40.60 43.35,38.95 47.20,38.40"/>
    </edge>
    <edge id=":B1_17" function="internal">
        <lane id=":B1_17_0" index="0" speed="3.65" length="2.34" shape="40.00,45.60 40.80,46.00 41.60,47.20"/>
    </edge>
    <edge id=":B1_4" function="internal">
        <lane id=":B1_4_0" index="0" speed="6.51" length="9.03" shape="47.20,41.60 44.75,41.95 43.00,43.00 41.95,44.75 41.60,47.20"/>
    </edge>
    <edge id=":B1_5" function="internal">
        <lane id=":B1_5_0" index="0" speed="13.89" length="14.40" shape="47.20,41.60 32.80,41.60"/>
    </edge>
    <edge id=":B1_6" function="internal">
        <lane id=":B1_6_0" index="0" speed="8.00" length="5.93" shape="47.20,41.60 43.35,41.05 41.60,40.00"/>
    </edge>
    <edge id=":B1_7" function="internal">
        <lane id=":B1_7_0" index="0" speed="3.65" length="2.34" shape="47.20,41.60 46.00,40.80 45.60,40.00"/>
    </edge>
    <edge id=":B1_18" function="internal">
        <lane id=":B1_18_0" index="0" speed="8.00" length="8.26" shape="41.60,40.00 40.60,39.40 38.95,36.65 38.40,32.80"/>
    </edge>
    <edge id=":B1_19" function="internal">
        <lane id=":B1_19_0" index="0" speed="3.65" length="2.34" shape="45.60,40.00 46.00,39.20 47.20,38.40"/>
    </edge>
    <edge id=":B1_8" function="internal">
        <lane id=":B1_8_0" index="0" speed="6.51" length="9.03" shape="41.60,32.80 41.95,35.25 43.00,37.00 44.75,38.05 47.20,38.40"/>
    </edge>
    <edge id=":B1_9" function="internal">
        <lane id=":B1_9_0" index="0" speed="13.89" length="14.40" shape="41.60,32.80 41.60,47.20"/>
    </edge>
    <edge id=":B1_10" function="internal">
        <lane id=":B1_10_0" index="0" speed="8.00" length="5.93" shape="41.60,32.80 41.05,36.65 40.00,38.40"/>
    </edge>
    <edge id=":B1_11" function="internal">
        <lane id=":B1_11_0" index="0" speed="3.65" length="2.34" shape="41.60,32.80 40.80,34.00 40.00,34.40"/>
    </edge>
    <edge id=":B1_20" function="internal">
        <lane id=":B1_20_0" index="0" speed="8.00" length="8.26" shape="40.00,38.40 39.40,39.40 36.65,41.05 32.80,41.60"/>
    </edge>
    <edge id=":B1_21" function="internal">
        <lane id=":B1_21_0" index="0" speed="3.65" length="2.34" shape="40.00,34.40 39.20,34.00 38.40,32.80"/>
    </edge>
    <edge id=":B1_12" function="internal">
        <lane id=":B1_12_0" index="0" speed="6.51" length="9.03" shape="32.80,38.40 35.25,38.05 37.00,37.00 38.05,35.25 38.40,32.80"/>
    </edge>
    <edge id=":B1_13" function="internal">
        <lane id=":B1_13_0" index="0" speed="13.89" length="14.40" shape="32.80,38.40 47.20,38.40"/>
    </edge>
    <edge id=":B1_14" function="internal">
        <lane id=":B1_14_0" index="0" speed="8.00" length="5.93" shape="32.80,38.40 36.65,38.95 38.40,40.00"/>
    </edge>
    <edge id=":B1_15" function="internal">
        <lane id=":B1_15_0" index="0" speed="3.65" length="2.34" shape="32.80,38.40 34.00,39.20 34.40,40.00"/>
    </edge>
    <edge id=":B1_22" function="internal">
        <lane id=":B1_22_0" index="0" speed="8.00" length="8.26" shape="38.40,40.00 39.40,40.60 41.05,43.35 41.60,47.20"/>
    </edge>
    <edge id=":B1_23" function="internal">
        <lane id=":B1_23_0" index="0" speed="3.65" length="2.34" shape="34.40,40.00 34.00,40.80 32.80,41.60"/>
    </edge>
    <edge id=":B2_0" function="internal">
        <lane id=":B2_0_0" index="0" speed="6.51" length="9.03" shape="38.40,87.20 38.05,84.75 37.00,83.00 35.25,81.95 32.80,81.60"/>
    </edge>
    <edge id=":B2_1" function="internal">
        <lane id=":B2_1_0" index="0" speed="13.89" length="14.40" shape="38.40,87.20 38.40,72.80"/>
    </edge>
    <edge id=":B2_2" function="internal">
        <lane id=":B2_2_0" index="0" speed="8.00" length="5.93" shape="38.40,87.20 38.95,83.35 40.00,81.60"/>
    </edge>
    <edge id=":B2_3" function="internal">
        <lane id=":B2_3_0" index="0" speed="3.65" length="2.34" shape="38.40,87.20 39.20,86.00 40.00,85.60"/>
    </edge>
    <edge id=":B2_16" function="internal">
        <lane id=":B2_16_0" index="0" speed="8.00" length="8.26" shape="40.00,81.60 40.60,80.60 43.35,78.95 47.20,78.40"/>
    </edge>
    <edge id=":B2_17" function="internal">
        <lane id=":B2_17_0" index="0" speed="3.65" length="2.34" shape="40.00,85.60 40.80,86.00 41.60,87.20"/>
    </edge>
    <edge id=":B2_4" function="internal">
        <lane id=":B2_4_0" index="0" speed="6.51" length="9.03" shape="47.20,81.60 44.75,81.95 43.00,83.00 41.95,84.75 41.60,87.20"/>
    </edge>
    <edge id=":B2_5" function="internal">
        <lane id=":B2_5_0" index="0" speed="13.89" length="14.40" shape="47.20,81.60 32.80,81.60"/>
    </edge>
    <edge id=":B2_6" function="internal">
        <lane id=":B2_6_0" index="0" speed="8.00" length="5.93" shape="47.20,81.60 43.35,81.05 41.60,80.00"/>
    </edge>
    <edge id=":B2_7" function="internal">
        <lane id=":B2_7_0" index="0" speed="3.65" length="2.34" shape="47.20,81.60 46.00,80.80 45.60,80.00"/>
    </edge>
    <edge id=":B2_18" function="internal">
        <lane id=":B2_18_0" index="0" speed="8.00" length="8.26" shape="41.60,80.00 40.60,79.40 38.95,76.65 38.40,72.80"/>
    </edge>
    <edge id=":B2_19" function="internal">
        <lane id=":B2_19_0" index="0" speed="3.65" length="2.34" shape="45.60,80.00 46.00,79.20 47.20,78.40"/>
    </edge>
    <edge id=":B2_8" function="internal">
        <lane id=":B2_8_0" index="0" speed="6.51" length="9.03" shape="41.60,72.80 41.95,75.25 43.00,77.00 44.75,78.05 47.20,78.40"/>
    </edge>
    <edge id=":B2_9" function="internal">
        <lane id=":B2_9_0" index="0" speed="13.89" length="14.40" shape="41.60,72.80 41.60,87.20"/>
    </edge>
    <edge id=":B2_10" function="internal">
        <lane id=":B2_10_0" index="0" speed="8.00" length="5.93" shape="41.60,72.80 41.05,76.65 40.00,78.40"/>
    </edge>
    <edge id=":B2_11" function="internal">
        <lane id=":B2_11_0" index="0" speed="3.65" length="2.34" shape="41.60,72.80 40.80,74.00 40.00,74.40"/>
    </edge>
    <edge id=":B2_20" function="internal">
        <lane id=":B2_20_0" index="0" speed="8.00" length="8.26" shape="40.00,78.40 39.40,79.40 36.65,81.05 32.80,81.60"/>
    </edge>
    <edge id=":B2_21" function="internal">
        <lane id=":B2_21_0" index="0" speed="3.65" length="2.34" shape="40.00,74.40 39.20,74.00 38.40,72.80"/>
    </edge>
    <edge id=":B2_12" function="internal">
        <lane id=":B2_12_0" index="0" speed="6.51" length="9.03" shape="32.80,78.40 35.25,78.05 37.00,77.00 38.05,75.25 38.40,72.80"/>
    </edge>
    <edge id=":B2_13" function="internal">
        <lane id=":B2_13_0" index="0" speed="13.89" length="14.40" shape="32.80,78.40 47.20,78.40"/>
    </edge>
    <edge id=":B2_14" function="internal">
        <lane id=":B2_14_0" index="0" speed="8.00" length="5.93" shape="32.80,78.40 36.65,78.95 38.40,80.00"/>
    </edge>
    <edge id=":B2_15" function="internal">
        <lane id=":B2_15_0" index="0" speed="3.65" length="2.34" shape="32.80,78.40 34.00,79.20 34.40,80.00"/>
    </edge>
    <edge id=":B2_22" function="internal">
        <lane id=":B2_22_0" index="0" speed="8.00" length="8.26" shape="38.40,80.00 39.40,80.60 41.05,83.35 41.60,87.20"/>
    </edge>
    <edge id=":B2_23" function="internal">
        <lane id=":B2_23_0" index="0" speed="3.65" length="2.34" shape="34.40,80.00 34.00,80.80 32.80,81.60"/>
    </edge>
    <edge id=":B3_0" function="internal">
        <lane id=":B3_0_0" index="0" speed="6.51" length="9.03" shape="38.40,127.20 38.05,124.75 37.00,123.00 35.25,121.95 32.80,121.60"/>
    </edge>
    <edge id=":B3_1" function="internal">
        <lane id=":B3_1_0" index="0" speed="13.89" length="14.40" shape="38.40,127.20 38.40,112.80"/>
    </edge>
    <edge id=":B3_2" function="internal">
        <lane id=":B3_2_0" index="0" speed="8.00" length="5.93" shape="38.40,127.20 38.95,123.35 40.00,121.60"/>
    </edge>
    <edge id=":B3_3" function="internal">
        <lane id=":B3_3_0" index="0" speed="3.65" length="2.34" shape="38.40,127.20 39.20,126.00 40.00,125.60"/>
    </edge>
    <edge id=":B3_16" function="internal">
        <lane id=":B3_16_0" index="0" speed="8.00" length="8.26" shape="40.00,121.60 40.60,120.60 43.35,118.95 47.20,118.40"/>
    </edge>
    <edge id=":B3_17" function="internal">
        <lane id=":B3_17_0" index="0" speed="3.65" length="2.34" shape="40.00,125.60 40.80,126.00 41.60,127.20"/>
    </edge>
    <edge id=":B3_4" function="internal">
        <lane id=":B3_4_0" index="0" speed="6.51" length="9.03" shape="47.20,121.60 44.75,121.95 43.00,123.00 41.95,124.75 41.60,127.20"/>
    </edge>
    <edge id=":B3_5" function="internal">
        <lane id=":B3_5_0" index="0" speed="13.89" length="14.40" shape="47.20,121.60 32.80,121.60"/>
    </edge>
    <edge id=":B3_6" function="internal">
        <lane id=":B3_6_0" index="0" speed="8.00" length="5.93" shape="47.20,121.60 43.35,121.05 41.60,120.00"/>
    </edge>
    <edge id=":B3_7" function="internal">
        <lane id=":B3_7_0" index="0" speed="3.65" length="2.34" shape="47.20,121.60 46.00,120.80 45.60,120.00"/>
    </edge>
    <edge id=":B3_18" function="internal">
        <lane id=":B3_18_0" index="0" speed="8.00" length="8.26" shape="41.60,120.00 40.60,119.40 38.95,116.65 38.40,112.80"/>
    </edge>
    <edge id=":B3_19" function="internal">
        <lane id=":B3_19_0" index="0" speed="3.65" length="2.34" shape="45.60,120.00 46.00,119.20 47.20,118.40"/>
    </edge>
    <edge id=":B3_8" function="internal">
        <lane id=":B3_8_0" index="0" speed="6.51" length="9.03" shape="41.60,112.80 41.95,115.25 43.00,117.00 44.75,118.05 47.20,118.40"/>
    </edge>
    <edge id=":B3_9" function="internal">
        <lane id=":B3_9_0" index="0" speed="13.89" length="14.40" shape="41.60,112.80 41.60,127.20"/>
    </edge>
    <edge id=":B3_10" function="internal">
        <lane id=":B3_10_0" index="0" speed="8.00" length="5.93" shape="41.60,112.80 41.05,116.65 40.00,118.40"/>
    </edge>
    <edge id=":B3_11" function="internal">
        <lane id=":B3_11_0" index="0" speed="3.65" length="2.34" shape="41.60,112.80 40.80,114.00 40.00,114.40"/>
    </edge>
    <edge id=":B3_20" function="internal">
        <lane id=":B3_20_0" index="0" speed="8.00" length="8.26" shape="40.00,118.40 39.40,119.40 36.65,121.05 32.80,121.60"/>
    </edge>
    <edge id=":B3_21" function="internal">
        <lane id=":B3_21_0" index="0" speed="3.65" length="2.34" shape="40.00,114.40 39.20,114.00 38.40,112.80"/>
    </edge>
    <edge id=":B3_12" function="internal">
        <lane id=":B3_12_0" index="0" speed="6.51" length="9.03" shape="32.80,118.40 35.25,118.05 37.00,117.00 38.05,115.25 38.40,112.80"/>
    </edge>
    <edge id=":B3_13" function="internal">
        <lane id=":B3_13_0" index="0" speed="13.89" length="14.40" shape="32.80,118.40 47.20,118.40"/>
    </edge>
    <edge id=":B3_14" function="internal">
        <lane id=":B3_14_0" index="0" speed="8.00" length="5.93" shape="32.80,118.40 36.65,118.95 38.40,120.00"/>
    </edge>
    <edge id=":B3_15" function="internal">
        <lane id=":B3_15_0" index="0" speed="3.65" length="2.34" shape="32.80,118.40 34.00,119.20 34.40,120.00"/>
    </edge>
    <edge id=":B3_22" function="internal">
        <lane id=":B3_22_0" index="0" speed="8.00" length="8.26" shape="38.40,120.00 39.40,120.60 41.05,123.35 41.60,127.20"/>
    </edge>
    <edge id=":B3_23" function="internal">
        <lane id=":B3_23_0" index="0" speed="3.65" length="2.34" shape="34.40,120.00 34.00,120.80 32.80,121.60"/>
    </edge>
    <edge id=":B4_0" function="internal">
        <lane id=":B4_0_0" index="0" speed="13.89" length="14.40" shape="47.20,161.60 32.80,161.60"/>
    </edge>
    <edge id=":B4_1" function="internal">
        <lane id=":B4_1_0" index="0" speed="8.00" length="5.93" shape="47.20,161.60 43.35,161.05 41.60,160.00"/>
    </edge>
    <edge id=":B4_2" function="internal">
        <lane id=":B4_2_0" index="0" speed="3.65" length="2.34" shape="47.20,161.60 46.00,160.80 45.60,160.00"/>
    </edge>
    <edge id=":B4_9" function="internal">
        <lane id=":B4_9_0" index="0" speed="8.00" length="8.26" shape="41.60,160.00 40.60,159.40 38.95,156.65 38.40,152.80"/>
    </edge>
    <edge id=":B4_10" function="internal">
        <lane id=":B4_10_0" index="0" speed="3.65" length="2.34" shape="45.60,160.00 46.00,159.20 47.20,158.40"/>
    </edge>
    <edge id=":B4_3" function="internal">
        <lane id=":B4_3_0" index="0" speed="6.51" length="9.03" shape="41.60,152.80 41.95,155.25 43.00,157.00 44.75,158.05 47.20,158.40"/>
    </edge>
    <edge id=":B4_4" function="internal">
        <lane id=":B4_4_0" index="0" speed="8.00" length="14.19" shape="41.60,152.80 41.05,156.65 39.40,159.40 36.65,161.05 32.80,161.60"/>
    </edge>
    <edge id=":B4_5" function="internal">
        <lane id=":B4_5_0" index="0" speed="3.65" length="2.56" shape="41.60,152.80 40.80,154.00 40.00,154.40 39.80,154.30"/>
    </edge>
    <edge id=":B4_11" function="internal">
        <lane id=":B4_11_0" index="0" speed="3.65" length="2.12" shape="39.80,154.30 39.20,154.00 38.40,152.80"/>
    </edge>
    <edge id=":B4_6" function="internal">
        <lane id=":B4_6_0" index="0" speed="6.51" length="9.03" shape="32.80,158.40 35.25,158.05 37.00,157.00 38.05,155.25 38.40,152.80"/>
    </edge>
    <edge id=":B4_7" function="internal">
        <lane id=":B4_7_0" index="0" speed="13.89" length="14.40" shape="32.80,158.40 47.20,158.40"/>
    </edge>
    <edge id=":B4_8" function="internal">
        <lane id=":B4_8_0" index="0" speed="3.65" length="2.34" shape="32.80,158.40 34.00,159.20 34.40,160.00"/>
    </edge>
    <edge id=":B4_12" function="internal">
        <lane id=":B4_12_0" index="0" speed="3.65" length="2.34" shape="34.40,160.00 34.00,160.80 32.80,161.60"/>
    </edge>
    <edge id=":C0_0" function="internal">
        <lane id=":C0_0_0" index="0" speed="6.51" length="9.03" shape="78.40,7.20 78.05,4.75 77.00,3.00 75.25,1.95 72.80,1.60"/>
    </edge>
    <edge id=":C0_1" function="internal">
        <lane id=":C0_1_0" index="0" speed="8.00" length="14.19" shape="78.40,7.20 78.95,3.35 80.60,0.60 83.35,-1.05 87.20,-1.60"/>
    </edge>
    <edge id=":C0_2" function="internal">
        <lane id=":C0_2_0" index="0" speed="3.65" length="2.56" shape="78.40,7.20 79.20,6.00 80.00,5.60 80.20,5.70"/>
    </edge>
    <edge id=":C0_9" function="internal">
        <lane id=":C0_9_0" index="0" speed="3.65" length="2.12" shape="80.20,5.70 80.80,6.00 81.60,7.20"/>
    </edge>
    <edge id=":C0_3" function="internal">
        <lane id=":C0_3_0" index="0" speed="6.51" length="9.03" shape="87.20,1.60 84.75,1.95 83.00,3.00 81.95,4.75 81.60,7.20"/>
    </edge>
    <edge id=":C0_4" function="internal">
        <lane id=":C0_4_0" index="0" speed="13.89" length="14.40" shape="87.20,1.60 72.80,1.60"/>
    </edge>
    <edge id=":C0_5" function="internal">
        <lane id=":C0_5_0" index="0" speed="3.65" length="2.34" shape="87.20,1.60 86.00,0.80 85.60,0.00"/>
    </edge>
    <edge id=":C0_10" function="internal">
        <lane id=":C0_10_0" index="0" speed="3.65" length="2.34" shape="85.60,0.00 86.00,-0.80 87.20,-1.60"/>
    </edge>
    <edge id=":C0_6" function="internal">
        <lane id=":C0_6_0" index="0" speed="13.89" length="14.40" shape="72.80,-1.60 87.20,-1.60"/>
    </edge>
    <edge id=":C0_7" function="internal">
        <lane id=":C0_7_0" index="0" speed="8.00" length="5.93" shape="72.80,-1.60 76.65,-1.05 78.40,0.00"/>
    </edge>
    <edge id=":C0_8" function="internal">
        <lane id=":C0_8_0" index="0" speed="3.65" length="2.34" shape="72.80,-1.60 74.00,-0.80 74.40,0.00"/>
    </edge>
    <edge id=":C0_11" function="internal">
        <lane id=":C0_11_0" index="0" speed="8.00" length="8.26" shape="78.40,0.00 79.40,0.60 81.05,3.35 81.60,7.20"/>
    </edge>
    <edge id=":C0_12" function="internal">
        <lane id=":C0_12_0" index="0" speed="3.65" length="2.34" shape="74.40,0.00 74.00,0.80 72.80,1.60"/>
    </edge>
    <edge id=":C1_0" function="internal">
        <lane id=":C1_0_0" index="0" speed="6.51" length="9.03" shape="78.40,47.20 78.05,44.75 77.00,43.00 75.25,41.95 72.80,41.60"/>
    </edge>
    <edge id=":C1_1" function="internal">
        <lane id=":C1_1_0" index="0" speed="13.89" length="14.40" shape="78.40,47.20 78.40,32.80"/>
    </edge>
    <edge id=":C1_2" function="internal">
        <lane id=":C1_2_0" index="0" speed="8.00" length="5.93" shape="78.40,47.20 78.95,43.35 80.00,41.60"/>
    </edge>
    <edge id=":C1_3" function="internal">
        <lane id=":C1_3_0" index="0" speed="3.65" length="2.34" shape="78.40,47.20 79.20,46.00 80.00,45.60"/>
    </edge>
    <edge id=":C1_16" function="internal">
        <lane id=":C1_16_0" index="0" speed="8.00" length="8.26" shape="80.00,41.60 80.60,40.60 83.35,38.95 87.20,38.40"/>
    </edge>
    <edge id=":C1_17" function="internal">
        <lane id=":C1_17_0" index="0" speed="3.65" length="2.34" shape="80.00,45.60 80.80,46.00 81.60,47.20"/>
    </edge>
    <edge id=":C1_4" function="internal">
        <lane id=":C1_4_0" index="0" speed="6.51" length="9.03" shape="87.20,41.60 84.75,41.95 83.00,43.00 81.95,44.75 81.60,47.20"/>
    </edge>
    <edge id=":C1_5" function="internal">
        <lane id=":C1_5_0" index="0" speed="13.89" length="14.40" shape="87.20,41.60 72.80,41.60"/>
    </edge>
    <edge id=":C1_6" function="internal">
        <lane id=":C1_6_0" index="0" speed="8.00" length="5.93" shape="87.20,41.60 83.35,41.05 81.60,40.00"/>
    </edge>
    <edge id=":C1_7" function="internal">
        <lane id=":C1_7_0" index="0" speed="3.65" length="2.34" shape="87.20,41.60 86.00,40.80 85.60,40.00"/>
    </edge>
    <edge id=":C1_18" function="internal">
        <lane id=":C1_18_0" index="0" speed="8.00" length="8.26" shape="81.60,40.00 80.60,39.40 78.95,36.65 78.40,32.80"/>
    </edge>
    <edge id=":C1_19" function="internal">
        <lane id=":C1_19_0" index="0" speed="3.65" length="2.34" shape="85.60,40.00 86.00,39.20 87.20,38.40"/>
    </edge>
    <edge id=":C1_8" function="internal">
        <lane id=":C1_8_0" index="0" speed="6.51" length="9.03" shape="81.60,32.80 81.95,35.25 83.00,37.00 84.75,38.05 87.20,38.40"/>
    </edge>
    <edge id=":C1_9" function="internal">
        <lane id=":C1_9_0" index="0" speed="13.89" length="14.40" shape="81.60,32.80 81.60,47.20"/>
    </edge>
    <edge id=":C1_10" function="internal">
        <lane id=":C1_10_0" index="0" speed="8.00" length="5.93" shape="81.60,32.80 81.05,36.65 80.00,38.40"/>
    </edge>
    <edge id=":C1_11" function="internal">
        <lane id=":C1_11_0" index="0" speed="3.65" length="2.34" shape="81.60,32.80 80.80,34.00 80.00,34.40"/>
    </edge>
    <edge id=":C1_20" function="internal">